untitled.cdx
csChFnd80/05071909292D

 28 31  0  0  0  0  0  0  0  0999 V2000
    1.0404    2.1000    0.0000 C   0  0  0  0  0  0  0  0  0  0  0  0
    1.0404    0.7000    0.0000 C   0  0  0  0  0  0  0  0  0  0  0  0
    2.2528    0.0000    0.0000 C   0  0  0  0  0  0  0  0  0  0  0  0
    3.4653    0.7000    0.0000 C   0  0  0  0  0  0  0  0  0  0  0  0
    3.4653    2.1000    0.0000 C   0  0  0  0  0  0  0  0  0  0  0  0
    2.2528    2.8000    0.0000 C   0  0  0  0  0  0  0  0  0  0  0  0
    1.9618    4.1694    0.0000 C   0  0  0  0  0  0  0  0  0  0  0  0
    0.5694    4.3157    0.0000 N   0  0  0  0  0  0  0  0  0  0  0  0
    0.0000    3.0368    0.0000 N   0  0  0  0  0  0  0  0  0  0  0  0
    4.6735    2.7976    0.0000 C   0  0  0  0  0  0  0  0  0  0  0  0
    5.8859    2.0976    0.0000 C   0  0  0  0  0  0  0  0  0  0  0  0
    7.0984    2.7976    0.0000 C   0  0  0  0  0  0  0  0  0  0  0  0
    7.0984    4.1976    0.0000 C   0  0  0  0  0  0  0  0  0  0  0  0
    5.8859    4.8976    0.0000 C   0  0  0  0  0  0  0  0  0  0  0  0
    4.6735    4.1976    0.0000 C   0  0  0  0  0  0  0  0  0  0  0  0
    8.3066    4.8951    0.0000 N   0  0  0  0  0  0  0  0  0  0  0  0
    9.5148    4.1976    0.0000 C   0  0  0  0  0  0  0  0  0  0  0  0
    9.5148    2.8024    0.0000 O   0  0  0  0  0  0  0  0  0  0  0  0
   10.7231    4.8951    0.0000 N   0  0  0  0  0  0  0  0  0  0  0  0
   11.9313    4.1976    0.0000 C   0  0  0  0  0  0  0  0  0  0  0  0
   11.9313    2.7976    0.0000 C   0  0  0  0  0  0  0  0  0  0  0  0
   13.1437    2.0976    0.0000 C   0  0  0  0  0  0  0  0  0  0  0  0
   14.3562    2.7976    0.0000 C   0  0  0  0  0  0  0  0  0  0  0  0
   14.3562    4.1976    0.0000 C   0  0  0  0  0  0  0  0  0  0  0  0
   13.1437    4.8976    0.0000 C   0  0  0  0  0  0  0  0  0  0  0  0
   15.5644    4.8951    0.0000 C   0  0  0  0  0  0  0  0  0  0  0  0
   10.7231    2.1000    0.0000 F   0  0  0  0  0  0  0  0  0  0  0  0
    2.8953    5.2062    0.0000 N   0  0  0  0  0  0  0  0  0  0  0  0
  1  2  2  0  0  0  0
  2  3  1  0  0  0  0
  3  4  2  0  0  0  0
  4  5  1  0  0  0  0
  5  6  2  0  0  0  0
  6  1  1  0  0  0  0
  6  7  1  0  0  0  0
  7  8  2  0  0  0  0
  8  9  1  0  0  0  0
  9  1  1  0  0  0  0
  5 10  1  0  0  0  0
 10 11  2  0  0  0  0
 11 12  1  0  0  0  0
 12 13  2  0  0  0  0
 13 14  1  0  0  0  0
 14 15  2  0  0  0  0
 15 10  1  0  0  0  0
 13 16  1  0  0  0  0
 16 17  1  0  0  0  0
 17 18  2  0  0  0  0
 17 19  1  0  0  0  0
 19 20  1  0  0  0  0
 20 21  2  0  0  0  0
 21 22  1  0  0  0  0
 22 23  2  0  0  0  0
 23 24  1  0  0  0  0
 24 25  2  0  0  0  0
 25 20  1  0  0  0  0
 24 26  1  0  0  0  0
 21 27  1  0  0  0  0
  7 28  1  0  0  0  0
M  END
>  <Mol_ID> (1)
2

>  <Formula> (1)
C21H18FN5O

>  <MolWeight> (1)
375.3989232

>  <Cat> (1)
S1003

>  <Name> (1)
Linifanib (ABT-869)

>  <Synonyms> (1)
AL-39324

>  <Target> (1)
PDGFR, VEGFR

>  <Form> (1)
Free Base

>  <CAS> (1)
796967-16-3

>  <URL> (1)
http://www.selleckchem.com/products/ABT-869.html

$$$$
untitled.cdx
csChFnd80/05071909292D

 28 31  0  0  0  0  0  0  0  0999 V2000
    3.4927    3.4611    0.0000 C   0  0  0  0  0  0  0  0  0  0  0  0
    4.1927    4.6735    0.0000 C   0  0  0  0  0  0  0  0  0  0  0  0
    3.4927    5.8859    0.0000 C   0  0  0  0  0  0  0  0  0  0  0  0
    2.0927    5.8859    0.0000 C   0  0  0  0  0  0  0  0  0  0  0  0
    1.3927    4.6735    0.0000 C   0  0  0  0  0  0  0  0  0  0  0  0
    2.0927    3.4611    0.0000 C   0  0  0  0  0  0  0  0  0  0  0  0
    1.3951    2.2528    0.0000 C   0  0  0  0  0  0  0  0  0  0  0  0
    0.0000    2.2528    0.0000 O   0  0  0  0  0  0  0  0  0  0  0  0
    2.0927    1.0446    0.0000 N   0  0  0  0  0  0  0  0  0  0  0  0
    3.4878    1.0446    0.0000 C   0  0  0  0  0  0  0  0  0  0  0  0
    4.1903    2.2528    0.0000 S   0  0  0  0  0  0  0  0  0  0  0  0
    5.5854    2.2528    0.0000 C   0  0  0  0  0  0  0  0  0  0  0  0
    6.2854    1.0404    0.0000 C   0  0  0  0  0  0  0  0  0  0  0  0
    7.6854    1.0404    0.0000 C   0  0  0  0  0  0  0  0  0  0  0  0
    8.3854    2.2528    0.0000 C   0  0  0  0  0  0  0  0  0  0  0  0
    7.6854    3.4653    0.0000 C   0  0  0  0  0  0  0  0  0  0  0  0
    6.2854    3.4653    0.0000 C   0  0  0  0  0  0  0  0  0  0  0  0
    8.6222    0.0000    0.0000 N   0  0  0  0  0  0  0  0  0  0  0  0
    9.9012    0.5694    0.0000 N   0  0  0  0  0  0  0  0  0  0  0  0
    9.7548    1.9618    0.0000 C   0  0  0  0  0  0  0  0  0  0  0  0
   10.7916    2.8953    0.0000 C   0  0  0  0  0  0  0  0  0  0  0  0
   12.1185    2.4642    0.0000 C   0  0  0  0  0  0  0  0  0  0  0  0
   13.1553    3.3977    0.0000 C   0  0  0  0  0  0  0  0  0  0  0  0
   14.4867    2.9651    0.0000 C   0  0  0  0  0  0  0  0  0  0  0  0
   15.5271    3.9019    0.0000 C   0  0  0  0  0  0  0  0  0  0  0  0
   15.2361    5.2713    0.0000 C   0  0  0  0  0  0  0  0  0  0  0  0
   13.9046    5.7039    0.0000 C   0  0  0  0  0  0  0  0  0  0  0  0
   12.8642    4.7671    0.0000 N   0  0  0  0  0  0  0  0  0  0  0  0
  1  2  2  0  0  0  0
  2  3  1  0  0  0  0
  3  4  2  0  0  0  0
  4  5  1  0  0  0  0
  5  6  2  0  0  0  0
  6  1  1  0  0  0  0
  6  7  1  0  0  0  0
  7  8  2  0  0  0  0
  7  9  1  0  0  0  0
  9 10  1  0  0  0  0
  1 11  1  0  0  0  0
 11 12  1  0  0  0  0
 12 13  2  0  0  0  0
 13 14  1  0  0  0  0
 14 15  2  0  0  0  0
 15 16  1  0  0  0  0
 16 17  2  0  0  0  0
 17 12  1  0  0  0  0
 14 18  1  0  0  0  0
 18 19  1  0  0  0  0
 19 20  2  0  0  0  0
 20 15  1  0  0  0  0
 20 21  1  0  0  0  0
 21 22  2  0  0  0  0
 22 23  1  0  0  0  0
 23 24  2  0  0  0  0
 24 25  1  0  0  0  0
 25 26  2  0  0  0  0
 26 27  1  0  0  0  0
 27 28  2  0  0  0  0
 28 23  1  0  0  0  0
M  END
>  <Mol_ID> (2)
4

>  <Formula> (2)
C22H18N4OS

>  <MolWeight> (2)
386.46952

>  <Cat> (2)
S1005

>  <Name> (2)
Axitinib

>  <Synonyms> (2)
AG 013736

>  <Target> (2)
VEGFR, PDGFR, c-Kit

>  <Form> (2)
Free Base

>  <CAS> (2)
319460-85-0

>  <URL> (2)
http://www.selleckchem.com/products/Axitinib.html

$$$$
untitled.cdx
csChFnd80/05071909292D

 38 43  0  0  0  0  0  0  0  0999 V2000
    8.4660    2.1000    0.0000 C   0  0  0  0  0  0  0  0  0  0  0  0
    8.4660    0.7000    0.0000 C   0  0  0  0  0  0  0  0  0  0  0  0
    9.6784    0.0000    0.0000 C   0  0  0  0  0  0  0  0  0  0  0  0
   10.8909    0.7000    0.0000 C   0  0  0  0  0  0  0  0  0  0  0  0
   10.8909    2.1000    0.0000 C   0  0  0  0  0  0  0  0  0  0  0  0
    9.6784    2.8000    0.0000 C   0  0  0  0  0  0  0  0  0  0  0  0
   12.1033    0.0000    0.0000 N   0  0  0  0  0  0  0  0  0  0  0  0
   13.3157    0.7000    0.0000 C   0  0  0  0  0  0  0  0  0  0  0  0
   13.3157    2.1000    0.0000 N   0  0  0  0  0  0  0  0  0  0  0  0
   12.1033    2.8000    0.0000 C   0  0  0  0  0  0  0  0  0  0  0  0
    9.6784    4.1951    0.0000 O   0  0  0  0  0  0  0  0  0  0  0  0
    7.2578    0.0024    0.0000 O   0  0  0  0  0  0  0  0  0  0  0  0
    6.0496    0.7000    0.0000 C   0  0  0  0  0  0  0  0  0  0  0  0
    4.8413    0.0024    0.0000 C   0  0  0  0  0  0  0  0  0  0  0  0
    3.6331    0.7000    0.0000 N   0  0  0  0  0  0  0  0  0  0  0  0
    3.6331    2.1000    0.0000 C   0  0  0  0  0  0  0  0  0  0  0  0
    2.4207    2.8000    0.0000 C   0  0  0  0  0  0  0  0  0  0  0  0
    1.2082    2.1000    0.0000 N   0  0  0  0  0  0  0  0  0  0  0  0
    1.2082    0.7000    0.0000 C   0  0  0  0  0  0  0  0  0  0  0  0
    2.4207    0.0000    0.0000 C   0  0  0  0  0  0  0  0  0  0  0  0
    0.0000    2.7976    0.0000 C   0  0  0  0  0  0  0  0  0  0  0  0
    8.4702    4.8927    0.0000 C   0  0  0  0  0  0  0  0  0  0  0  0
    8.4702    6.2927    0.0000 C   0  0  0  0  0  0  0  0  0  0  0  0
    7.2578    6.9927    0.0000 C   0  0  0  0  0  0  0  0  0  0  0  0
    6.0453    6.2927    0.0000 O   0  0  0  0  0  0  0  0  0  0  0  0
    6.0453    4.8927    0.0000 C   0  0  0  0  0  0  0  0  0  0  0  0
    7.2578    4.1927    0.0000 C   0  0  0  0  0  0  0  0  0  0  0  0
   12.1033    4.1951    0.0000 N   0  0  0  0  0  0  0  0  0  0  0  0
   13.3115    4.8927    0.0000 C   0  0  0  0  0  0  0  0  0  0  0  0
   14.5240    4.1927    0.0000 C   0  0  0  0  0  0  0  0  0  0  0  0
   15.7364    4.8927    0.0000 C   0  0  0  0  0  0  0  0  0  0  0  0
   15.7364    6.2927    0.0000 C   0  0  0  0  0  0  0  0  0  0  0  0
   14.5240    6.9927    0.0000 C   0  0  0  0  0  0  0  0  0  0  0  0
   13.3115    6.2927    0.0000 C   0  0  0  0  0  0  0  0  0  0  0  0
   14.5240    2.7976    0.0000 Cl  0  0  0  0  0  0  0  0  0  0  0  0
   14.2329    8.3621    0.0000 O   0  0  0  0  0  0  0  0  0  0  0  0
   12.8406    8.5085    0.0000 C   0  0  0  0  0  0  0  0  0  0  0  0
   12.2711    7.2295    0.0000 O   0  0  0  0  0  0  0  0  0  0  0  0
  1  2  2  0  0  0  0
  2  3  1  0  0  0  0
  3  4  2  0  0  0  0
  4  5  1  0  0  0  0
  5  6  2  0  0  0  0
  6  1  1  0  0  0  0
  4  7  1  0  0  0  0
  7  8  2  0  0  0  0
  8  9  1  0  0  0  0
  9 10  2  0  0  0  0
 10  5  1  0  0  0  0
  6 11  1  0  0  0  0
  2 12  1  0  0  0  0
 12 13  1  0  0  0  0
 13 14  1  0  0  0  0
 14 15  1  0  0  0  0
 15 16  1  0  0  0  0
 16 17  1  0  0  0  0
 17 18  1  0  0  0  0
 18 19  1  0  0  0  0
 19 20  1  0  0  0  0
 20 15  1  0  0  0  0
 18 21  1  0  0  0  0
 11 22  1  0  0  0  0
 22 23  1  0  0  0  0
 23 24  1  0  0  0  0
 24 25  1  0  0  0  0
 25 26  1  0  0  0  0
 26 27  1  0  0  0  0
 27 22  1  0  0  0  0
 10 28  1  0  0  0  0
 28 29  1  0  0  0  0
 29 30  2  0  0  0  0
 30 31  1  0  0  0  0
 31 32  2  0  0  0  0
 32 33  1  0  0  0  0
 33 34  2  0  0  0  0
 34 29  1  0  0  0  0
 30 35  1  0  0  0  0
 33 36  1  0  0  0  0
 36 37  1  0  0  0  0
 37 38  1  0  0  0  0
 38 34  1  0  0  0  0
M  END
>  <Mol_ID> (3)
5

>  <Formula> (3)
C27H32ClN5O5

>  <MolWeight> (3)
542.02648

>  <Cat> (3)
S1006

>  <Name> (3)
Saracatinib (AZD0530)

>  <Synonyms> (3)
N/A 

>  <Target> (3)
Src, Bcr-Abl

>  <Form> (3)
Free Base

>  <CAS> (3)
379231-04-6

>  <URL> (3)
http://www.selleckchem.com/products/AZD0530.html

$$$$
azd6244.cdx
csChFnd80/05071909292D

 27 29  0  0  0  0  0  0  0  0999 V2000
    4.8287    3.6157    0.0000 C   0  0  0  0  0  0  0  0  0  0  0  0
    4.8287    2.2157    0.0000 C   0  0  0  0  0  0  0  0  0  0  0  0
    6.0411    1.5157    0.0000 C   0  0  0  0  0  0  0  0  0  0  0  0
    7.2536    2.2157    0.0000 C   0  0  0  0  0  0  0  0  0  0  0  0
    7.2536    3.6157    0.0000 C   0  0  0  0  0  0  0  0  0  0  0  0
    6.0411    4.3157    0.0000 C   0  0  0  0  0  0  0  0  0  0  0  0
    8.4618    4.3133    0.0000 N   0  0  0  0  0  0  0  0  0  0  0  0
    9.6700    3.6157    0.0000 C   0  0  0  0  0  0  0  0  0  0  0  0
    9.6700    2.2157    0.0000 C   0  0  0  0  0  0  0  0  0  0  0  0
   10.8825    1.5157    0.0000 C   0  0  0  0  0  0  0  0  0  0  0  0
   12.0949    2.2157    0.0000 C   0  0  0  0  0  0  0  0  0  0  0  0
   12.0949    3.6157    0.0000 C   0  0  0  0  0  0  0  0  0  0  0  0
   10.8825    4.3157    0.0000 C   0  0  0  0  0  0  0  0  0  0  0  0
   10.8825    5.7109    0.0000 Cl  0  0  0  0  0  0  0  0  0  0  0  0
   13.3031    1.5182    0.0000 Br  0  0  0  0  0  0  0  0  0  0  0  0
    8.4618    1.5182    0.0000 F   0  0  0  0  0  0  0  0  0  0  0  0
    3.7883    1.2790    0.0000 N   0  0  0  0  0  0  0  0  0  0  0  0
    4.3577    0.0000    0.0000 C   0  0  0  0  0  0  0  0  0  0  0  0
    5.7501    0.1463    0.0000 N   0  0  0  0  0  0  0  0  0  0  0  0
    2.4236    1.5690    0.0000 C   0  0  0  0  0  0  0  0  0  0  0  0
    6.0411    5.7109    0.0000 C   0  0  0  0  0  0  0  0  0  0  0  0
    4.8329    6.4085    0.0000 N   0  0  0  0  0  0  0  0  0  0  0  0
    7.2494    6.4085    0.0000 O   0  0  0  0  0  0  0  0  0  0  0  0
    3.6247    5.7109    0.0000 O   0  0  0  0  0  0  0  0  0  0  0  0
    2.4165    6.4085    0.0000 C   0  0  0  0  0  0  0  0  0  0  0  0
    1.2082    5.7109    0.0000 C   0  0  0  0  0  0  0  0  0  0  0  0
    0.0000    6.4085    0.0000 O   0  0  0  0  0  0  0  0  0  0  0  0
  1  2  2  0  0  0  0
  2  3  1  0  0  0  0
  3  4  2  0  0  0  0
  4  5  1  0  0  0  0
  5  6  2  0  0  0  0
  6  1  1  0  0  0  0
  5  7  1  0  0  0  0
  7  8  1  0  0  0  0
  8  9  2  0  0  0  0
  9 10  1  0  0  0  0
 10 11  2  0  0  0  0
 11 12  1  0  0  0  0
 12 13  2  0  0  0  0
 13  8  1  0  0  0  0
 13 14  1  0  0  0  0
 11 15  1  0  0  0  0
  4 16  1  0  0  0  0
  2 17  1  0  0  0  0
 17 18  1  0  0  0  0
 18 19  2  0  0  0  0
 19  3  1  0  0  0  0
 17 20  1  0  0  0  0
  6 21  1  0  0  0  0
 21 22  1  0  0  0  0
 21 23  2  0  0  0  0
 22 24  1  0  0  0  0
 24 25  1  0  0  0  0
 25 26  1  0  0  0  0
 26 27  1  0  0  0  0
M  END
>  <Mol_ID> (4)
6

>  <Formula> (4)
C17H15BrClFN4O3

>  <MolWeight> (4)
457.6814032

>  <Cat> (4)
S1008

>  <Name> (4)
AZD6244 (Selumetinib)

>  <Synonyms> (4)
ARRY-142886 

>  <Target> (4)
MEK

>  <Form> (4)
Free Base

>  <CAS> (4)
606143-52-6

>  <URL> (4)
http://www.selleckchem.com/products/AZD6244.html

$$$$
untitled.cdx
csChFnd80/05071909292D

 40 44  0  0  0  0  0  0  0  0999 V2000
    3.6247    3.4927    0.0000 C   0  0  0  0  0  0  0  0  0  0  0  0
    3.6247    2.0927    0.0000 C   0  0  0  0  0  0  0  0  0  0  0  0
    4.8371    1.3927    0.0000 C   0  0  0  0  0  0  0  0  0  0  0  0
    6.0496    2.0927    0.0000 C   0  0  0  0  0  0  0  0  0  0  0  0
    6.0496    3.4927    0.0000 C   0  0  0  0  0  0  0  0  0  0  0  0
    4.8371    4.1927    0.0000 C   0  0  0  0  0  0  0  0  0  0  0  0
    7.3810    1.6601    0.0000 N   0  0  0  0  0  0  0  0  0  0  0  0
    8.2039    2.7927    0.0000 C   0  0  0  0  0  0  0  0  0  0  0  0
    7.3810    3.9253    0.0000 C   0  0  0  0  0  0  0  0  0  0  0  0
    7.8122    5.2522    0.0000 C   0  0  0  0  0  0  0  0  0  0  0  0
    6.8786    6.2890    0.0000 C   0  0  0  0  0  0  0  0  0  0  0  0
    9.1768    5.5423    0.0000 N   0  0  0  0  0  0  0  0  0  0  0  0
    7.3112    7.6205    0.0000 C   0  0  0  0  0  0  0  0  0  0  0  0
    6.3745    8.6609    0.0000 C   0  0  0  0  0  0  0  0  0  0  0  0
    5.0051    8.3698    0.0000 C   0  0  0  0  0  0  0  0  0  0  0  0
    4.5724    7.0383    0.0000 C   0  0  0  0  0  0  0  0  0  0  0  0
    5.5092    5.9979    0.0000 C   0  0  0  0  0  0  0  0  0  0  0  0
    9.6079    6.8691    0.0000 C   0  0  0  0  0  0  0  0  0  0  0  0
   10.9773    7.1602    0.0000 C   0  0  0  0  0  0  0  0  0  0  0  0
   11.4100    8.4917    0.0000 C   0  0  0  0  0  0  0  0  0  0  0  0
   10.4732    9.5321    0.0000 C   0  0  0  0  0  0  0  0  0  0  0  0
    9.1038    9.2410    0.0000 C   0  0  0  0  0  0  0  0  0  0  0  0
    8.6711    7.9095    0.0000 C   0  0  0  0  0  0  0  0  0  0  0  0
   10.9043   10.8589    0.0000 N   0  0  0  0  0  0  0  0  0  0  0  0
    9.9708   11.8957    0.0000 C   0  0  0  0  0  0  0  0  0  0  0  0
   12.2690   11.1490    0.0000 C   0  0  0  0  0  0  0  0  0  0  0  0
   13.2025   10.1122    0.0000 C   0  0  0  0  0  0  0  0  0  0  0  0
   12.7001   12.4759    0.0000 O   0  0  0  0  0  0  0  0  0  0  0  0
   14.5671   10.4023    0.0000 N   0  0  0  0  0  0  0  0  0  0  0  0
   15.5039    9.3619    0.0000 C   0  0  0  0  0  0  0  0  0  0  0  0
   16.8733    9.6529    0.0000 C   0  0  0  0  0  0  0  0  0  0  0  0
   17.3060   10.9844    0.0000 N   0  0  0  0  0  0  0  0  0  0  0  0
   16.3692   12.0248    0.0000 C   0  0  0  0  0  0  0  0  0  0  0  0
   14.9998   11.7338    0.0000 C   0  0  0  0  0  0  0  0  0  0  0  0
   18.6706   11.2745    0.0000 C   0  0  0  0  0  0  0  0  0  0  0  0
    2.4165    1.3951    0.0000 C   0  0  0  0  0  0  0  0  0  0  0  0
    1.2082    2.0927    0.0000 O   0  0  0  0  0  0  0  0  0  0  0  0
    2.4165    0.0000    0.0000 O   0  0  0  0  0  0  0  0  0  0  0  0
    0.0000    1.3951    0.0000 C   0  0  0  0  0  0  0  0  0  0  0  0
    9.5991    2.7927    0.0000 O   0  0  0  0  0  0  0  0  0  0  0  0
  1  2  2  0  0  0  0
  2  3  1  0  0  0  0
  3  4  2  0  0  0  0
  4  5  1  0  0  0  0
  5  6  2  0  0  0  0
  6  1  1  0  0  0  0
  4  7  1  0  0  0  0
  7  8  1  0  0  0  0
  8  9  1  0  0  0  0
  9  5  1  0  0  0  0
  9 10  2  0  0  0  0
 10 11  1  0  0  0  0
 10 12  1  0  0  0  0
 11 13  2  0  0  0  0
 13 14  1  0  0  0  0
 14 15  2  0  0  0  0
 15 16  1  0  0  0  0
 16 17  2  0  0  0  0
 17 11  1  0  0  0  0
 12 18  1  0  0  0  0
 18 19  2  0  0  0  0
 19 20  1  0  0  0  0
 20 21  2  0  0  0  0
 21 22  1  0  0  0  0
 22 23  2  0  0  0  0
 23 18  1  0  0  0  0
 21 24  1  0  0  0  0
 24 25  1  0  0  0  0
 24 26  1  0  0  0  0
 26 27  1  0  0  0  0
 26 28  2  0  0  0  0
 27 29  1  0  0  0  0
 29 30  1  0  0  0  0
 30 31  1  0  0  0  0
 31 32  1  0  0  0  0
 32 33  1  0  0  0  0
 33 34  1  0  0  0  0
 34 29  1  0  0  0  0
 32 35  1  0  0  0  0
  2 36  1  0  0  0  0
 36 37  1  0  0  0  0
 36 38  2  0  0  0  0
 37 39  1  0  0  0  0
  8 40  2  0  0  0  0
M  END
>  <Mol_ID> (5)
7

>  <Formula> (5)
C31H33N5O4

>  <MolWeight> (5)
539.62482

>  <Cat> (5)
S1010

>  <Name> (5)
Nintedanib (BIBF 1120)

>  <Synonyms> (5)
N/A 

>  <Target> (5)
VEGFR, PDGFR, FGFR

>  <Form> (5)
Free Base

>  <CAS> (5)
656247-17-5

>  <URL> (5)
http://www.selleckchem.com/products/BIBF1120.html

$$$$
Bosutinib (SKI-606).cdx
csChFnd80/05071909292D

 36 39  0  0  0  0  0  0  0  0999 V2000
    7.7000    1.2124    0.0000 N   0  0  0  0  0  0  0  0  0  0  0  0
    6.3000    1.2124    0.0000 C   0  0  0  0  0  0  0  0  0  0  0  0
    5.6000    2.4249    0.0000 C   0  0  0  0  0  0  0  0  0  0  0  0
    6.3000    3.6373    0.0000 C   0  0  0  0  0  0  0  0  0  0  0  0
    7.7000    3.6373    0.0000 C   0  0  0  0  0  0  0  0  0  0  0  0
    8.4000    4.8497    0.0000 C   0  0  0  0  0  0  0  0  0  0  0  0
    9.8000    4.8497    0.0000 C   0  0  0  0  0  0  0  0  0  0  0  0
   10.5000    3.6373    0.0000 C   0  0  0  0  0  0  0  0  0  0  0  0
    9.8000    2.4249    0.0000 C   0  0  0  0  0  0  0  0  0  0  0  0
    8.4000    2.4249    0.0000 C   0  0  0  0  0  0  0  0  0  0  0  0
    4.2000    2.4249    0.0000 C   0  0  0  0  0  0  0  0  0  0  0  0
    2.8000    2.4249    0.0000 N   0  0  0  0  0  0  0  0  0  0  0  0
   11.9000    3.6373    0.0000 O   0  0  0  0  0  0  0  0  0  0  0  0
   12.6000    2.4249    0.0000 C   0  0  0  0  0  0  0  0  0  0  0  0
   14.0000    2.4249    0.0000 C   0  0  0  0  0  0  0  0  0  0  0  0
   14.7000    1.2124    0.0000 C   0  0  0  0  0  0  0  0  0  0  0  0
   16.1000    1.2124    0.0000 N   0  0  0  0  0  0  0  0  0  0  0  0
   16.8000    2.4249    0.0000 C   0  0  0  0  0  0  0  0  0  0  0  0
   18.2000    2.4249    0.0000 C   0  0  0  0  0  0  0  0  0  0  0  0
   18.9000    1.2124    0.0000 N   0  0  0  0  0  0  0  0  0  0  0  0
   18.2000    0.0000    0.0000 C   0  0  0  0  0  0  0  0  0  0  0  0
   16.8000    0.0000    0.0000 C   0  0  0  0  0  0  0  0  0  0  0  0
   20.3000    1.2124    0.0000 C   0  0  0  0  0  0  0  0  0  0  0  0
   10.5000    6.0622    0.0000 O   0  0  0  0  0  0  0  0  0  0  0  0
   11.9000    6.0622    0.0000 C   0  0  0  0  0  0  0  0  0  0  0  0
    5.6000    4.8497    0.0000 N   0  0  0  0  0  0  0  0  0  0  0  0
    4.2000    4.8497    0.0000 C   0  0  0  0  0  0  0  0  0  0  0  0
    3.5000    6.0622    0.0000 C   0  0  0  0  0  0  0  0  0  0  0  0
    2.1000    6.0622    0.0000 C   0  0  0  0  0  0  0  0  0  0  0  0
    1.4000    4.8497    0.0000 C   0  0  0  0  0  0  0  0  0  0  0  0
    2.1000    3.6373    0.0000 C   0  0  0  0  0  0  0  0  0  0  0  0
    3.5000    3.6373    0.0000 C   0  0  0  0  0  0  0  0  0  0  0  0
    1.4000    2.4249    0.0000 O   0  0  0  0  0  0  0  0  0  0  0  0
    0.0000    2.4249    0.0000 C   0  0  0  0  0  0  0  0  0  0  0  0
    0.0000    4.8497    0.0000 Cl  0  0  0  0  0  0  0  0  0  0  0  0
    4.2000    7.2746    0.0000 Cl  0  0  0  0  0  0  0  0  0  0  0  0
  1  2  2  0  0  0  0
  2  3  1  0  0  0  0
  3  4  2  0  0  0  0
  4  5  1  0  0  0  0
  5  6  2  0  0  0  0
  6  7  1  0  0  0  0
  7  8  2  0  0  0  0
  8  9  1  0  0  0  0
  9 10  2  0  0  0  0
  1 10  1  0  0  0  0
  5 10  1  0  0  0  0
 11 12  3  0  0  0  0
  3 11  1  0  0  0  0
 14 15  1  0  0  0  0
 15 16  1  0  0  0  0
 13 14  1  0  0  0  0
 17 18  1  0  0  0  0
 18 19  1  0  0  0  0
 19 20  1  0  0  0  0
 20 21  1  0  0  0  0
 21 22  1  0  0  0  0
 17 22  1  0  0  0  0
 20 23  1  0  0  0  0
 16 17  1  0  0  0  0
  8 13  1  0  0  0  0
 24 25  1  0  0  0  0
  7 24  1  0  0  0  0
 27 28  1  0  0  0  0
 28 29  2  0  0  0  0
 29 30  1  0  0  0  0
 30 31  2  0  0  0  0
 31 32  1  0  0  0  0
 27 32  2  0  0  0  0
 33 34  1  0  0  0  0
 31 33  1  0  0  0  0
 30 35  1  0  0  0  0
 28 36  1  0  0  0  0
 26 27  1  0  0  0  0
  4 26  1  0  0  0  0
M  END
>  <Mol_ID> (6)
9

>  <Formula> (6)
C26H29Cl2N5O3

>  <MolWeight> (6)
530.44616

>  <Cat> (6)
S1014

>  <Name> (6)
Bosutinib (SKI-606)

>  <Synonyms> (6)
N/A 

>  <Target> (6)
Src

>  <Form> (6)
Free Base

>  <CAS> (6)
380843-75-4

>  <URL> (6)
http://www.selleckchem.com/products/Bosutinib.html

$$$$
untitled.cdx
csChFnd80/05071909292D

 33 37  0  0  0  0  0  0  0  0999 V2000
    8.2695    3.7834    0.0000 C   0  0  0  0  0  0  0  0  0  0  0  0
    8.2695    2.3834    0.0000 C   0  0  0  0  0  0  0  0  0  0  0  0
    9.4819    1.6834    0.0000 C   0  0  0  0  0  0  0  0  0  0  0  0
   10.6944    2.3834    0.0000 C   0  0  0  0  0  0  0  0  0  0  0  0
   10.6944    3.7834    0.0000 C   0  0  0  0  0  0  0  0  0  0  0  0
    9.4819    4.4834    0.0000 C   0  0  0  0  0  0  0  0  0  0  0  0
   11.9068    1.6834    0.0000 N   0  0  0  0  0  0  0  0  0  0  0  0
   13.1193    2.3834    0.0000 C   0  0  0  0  0  0  0  0  0  0  0  0
   13.1193    3.7834    0.0000 N   0  0  0  0  0  0  0  0  0  0  0  0
   11.9068    4.4834    0.0000 C   0  0  0  0  0  0  0  0  0  0  0  0
   11.9068    5.8785    0.0000 O   0  0  0  0  0  0  0  0  0  0  0  0
   13.1150    6.5761    0.0000 C   0  0  0  0  0  0  0  0  0  0  0  0
   14.3275    5.8761    0.0000 C   0  0  0  0  0  0  0  0  0  0  0  0
   15.5399    6.5761    0.0000 C   0  0  0  0  0  0  0  0  0  0  0  0
   15.5399    7.9761    0.0000 C   0  0  0  0  0  0  0  0  0  0  0  0
   14.3275    8.6761    0.0000 C   0  0  0  0  0  0  0  0  0  0  0  0
   13.1150    7.9761    0.0000 C   0  0  0  0  0  0  0  0  0  0  0  0
   16.8714    6.1435    0.0000 C   0  0  0  0  0  0  0  0  0  0  0  0
   17.6943    7.2761    0.0000 C   0  0  0  0  0  0  0  0  0  0  0  0
   16.8714    8.4087    0.0000 N   0  0  0  0  0  0  0  0  0  0  0  0
   14.3275    4.4810    0.0000 F   0  0  0  0  0  0  0  0  0  0  0  0
   19.0894    7.2761    0.0000 C   0  0  0  0  0  0  0  0  0  0  0  0
    7.0613    4.4810    0.0000 O   0  0  0  0  0  0  0  0  0  0  0  0
    7.0613    1.6858    0.0000 O   0  0  0  0  0  0  0  0  0  0  0  0
    5.8531    2.3834    0.0000 C   0  0  0  0  0  0  0  0  0  0  0  0
    5.8531    3.7834    0.0000 C   0  0  0  0  0  0  0  0  0  0  0  0
    4.6406    1.6834    0.0000 C   0  0  0  0  0  0  0  0  0  0  0  0
    3.4282    2.3834    0.0000 C   0  0  0  0  0  0  0  0  0  0  0  0
    2.2157    1.6834    0.0000 N   0  0  0  0  0  0  0  0  0  0  0  0
    0.9368    2.2528    0.0000 C   0  0  0  0  0  0  0  0  0  0  0  0
    0.0000    1.2124    0.0000 C   0  0  0  0  0  0  0  0  0  0  0  0
    0.7000    0.0000    0.0000 C   0  0  0  0  0  0  0  0  0  0  0  0
    2.0694    0.2911    0.0000 C   0  0  0  0  0  0  0  0  0  0  0  0
  1  2  2  0  0  0  0
  2  3  1  0  0  0  0
  3  4  2  0  0  0  0
  4  5  1  0  0  0  0
  5  6  2  0  0  0  0
  6  1  1  0  0  0  0
  4  7  1  0  0  0  0
  7  8  2  0  0  0  0
  8  9  1  0  0  0  0
  9 10  2  0  0  0  0
 10  5  1  0  0  0  0
 10 11  1  0  0  0  0
 11 12  1  0  0  0  0
 12 13  2  0  0  0  0
 13 14  1  0  0  0  0
 14 15  2  0  0  0  0
 15 16  1  0  0  0  0
 16 17  2  0  0  0  0
 17 12  1  0  0  0  0
 14 18  1  0  0  0  0
 18 19  2  0  0  0  0
 19 20  1  0  0  0  0
 20 15  1  0  0  0  0
 13 21  1  0  0  0  0
 19 22  1  0  0  0  0
  1 23  1  0  0  0  0
  2 24  1  0  0  0  0
 24 25  1  0  0  0  0
 23 26  1  0  0  0  0
 25 27  1  0  0  0  0
 27 28  1  0  0  0  0
 28 29  1  0  0  0  0
 29 30  1  0  0  0  0
 30 31  1  0  0  0  0
 31 32  1  0  0  0  0
 32 33  1  0  0  0  0
 33 29  1  0  0  0  0
M  END
>  <Mol_ID> (7)
10

>  <Formula> (7)
C25H27FN4O3

>  <MolWeight> (7)
450.5052832

>  <Cat> (7)
S1017

>  <Name> (7)
Cediranib (AZD2171)

>  <Synonyms> (7)
Recentin 

>  <Target> (7)
VEGFR, Flt

>  <Form> (7)
Free Base

>  <CAS> (7)
288383-20-0

>  <URL> (7)
http://www.selleckchem.com/products/Cediranib.html

$$$$
CI1040.cdx
csChFnd80/05071909292D

 25 27  0  0  0  0  0  0  0  0999 V2000
    1.2082    7.6879    0.0000 C   0  0  0  0  0  0  0  0  0  0  0  0
    1.2082    6.2879    0.0000 C   0  0  0  0  0  0  0  0  0  0  0  0
    2.4207    5.5879    0.0000 C   0  0  0  0  0  0  0  0  0  0  0  0
    3.6331    6.2879    0.0000 C   0  0  0  0  0  0  0  0  0  0  0  0
    3.6331    7.6879    0.0000 C   0  0  0  0  0  0  0  0  0  0  0  0
    2.4207    8.3879    0.0000 C   0  0  0  0  0  0  0  0  0  0  0  0
    0.0000    5.5903    0.0000 F   0  0  0  0  0  0  0  0  0  0  0  0
    2.4207    4.1927    0.0000 F   0  0  0  0  0  0  0  0  0  0  0  0
    4.8413    5.5903    0.0000 N   0  0  0  0  0  0  0  0  0  0  0  0
    4.8413    4.1951    0.0000 C   0  0  0  0  0  0  0  0  0  0  0  0
    3.6289    3.4951    0.0000 C   0  0  0  0  0  0  0  0  0  0  0  0
    3.6289    2.0951    0.0000 C   0  0  0  0  0  0  0  0  0  0  0  0
    4.8413    1.3951    0.0000 C   0  0  0  0  0  0  0  0  0  0  0  0
    6.0538    2.0951    0.0000 C   0  0  0  0  0  0  0  0  0  0  0  0
    6.0538    3.4951    0.0000 C   0  0  0  0  0  0  0  0  0  0  0  0
    7.2620    4.1927    0.0000 Cl  0  0  0  0  0  0  0  0  0  0  0  0
    4.8413    0.0000    0.0000 I   0  0  0  0  0  0  0  0  0  0  0  0
    4.8413    8.3854    0.0000 C   0  0  0  0  0  0  0  0  0  0  0  0
    6.0496    7.6879    0.0000 N   0  0  0  0  0  0  0  0  0  0  0  0
    4.8413    9.7806    0.0000 O   0  0  0  0  0  0  0  0  0  0  0  0
    7.2620    8.3879    0.0000 O   0  0  0  0  0  0  0  0  0  0  0  0
    8.4702    7.6903    0.0000 C   0  0  0  0  0  0  0  0  0  0  0  0
    9.6827    8.3903    0.0000 C   0  0  0  0  0  0  0  0  0  0  0  0
   11.0827    8.3903    0.0000 C   0  0  0  0  0  0  0  0  0  0  0  0
   10.3827    9.6027    0.0000 C   0  0  0  0  0  0  0  0  0  0  0  0
  1  2  2  0  0  0  0
  2  3  1  0  0  0  0
  3  4  2  0  0  0  0
  4  5  1  0  0  0  0
  5  6  2  0  0  0  0
  6  1  1  0  0  0  0
  2  7  1  0  0  0  0
  3  8  1  0  0  0  0
  4  9  1  0  0  0  0
  9 10  1  0  0  0  0
 10 11  2  0  0  0  0
 11 12  1  0  0  0  0
 12 13  2  0  0  0  0
 13 14  1  0  0  0  0
 14 15  2  0  0  0  0
 15 10  1  0  0  0  0
 15 16  1  0  0  0  0
 13 17  1  0  0  0  0
  5 18  1  0  0  0  0
 18 19  1  0  0  0  0
 18 20  2  0  0  0  0
 19 21  1  0  0  0  0
 21 22  1  0  0  0  0
 22 23  1  0  0  0  0
 23 24  1  0  0  0  0
 24 25  1  0  0  0  0
 25 23  1  0  0  0  0
M  END
>  <Mol_ID> (8)
11

>  <Formula> (8)
C17H14ClF2IN2O2

>  <MolWeight> (8)
478.6595364

>  <Cat> (8)
S1020

>  <Name> (8)
CI-1040 (PD184352)

>  <Synonyms> (8)
N/A 

>  <Target> (8)
MEK 

>  <Form> (8)
Free Base

>  <CAS> (8)
212631-79-3

>  <URL> (8)
http://www.selleckchem.com/products/CI-1040-(PD184352).html

$$$$
Dasatinib.cdx
csChFnd80/05071909292D

 33 36  0  0  0  0  0  0  0  0999 V2000
    8.5748    4.1976    0.0000 N   0  0  0  0  0  0  0  0  0  0  0  0
    8.5748    2.7976    0.0000 C   0  0  0  0  0  0  0  0  0  0  0  0
    9.7872    2.0976    0.0000 N   0  0  0  0  0  0  0  0  0  0  0  0
   10.9996    2.7976    0.0000 C   0  0  0  0  0  0  0  0  0  0  0  0
   10.9996    4.1976    0.0000 C   0  0  0  0  0  0  0  0  0  0  0  0
    9.7872    4.8976    0.0000 C   0  0  0  0  0  0  0  0  0  0  0  0
   12.2079    2.1000    0.0000 N   0  0  0  0  0  0  0  0  0  0  0  0
   12.2079    0.7000    0.0000 C   0  0  0  0  0  0  0  0  0  0  0  0
   13.4203    0.0000    0.0000 C   0  0  0  0  0  0  0  0  0  0  0  0
   14.6327    0.7000    0.0000 N   0  0  0  0  0  0  0  0  0  0  0  0
   14.6327    2.1000    0.0000 C   0  0  0  0  0  0  0  0  0  0  0  0
   13.4203    2.8000    0.0000 C   0  0  0  0  0  0  0  0  0  0  0  0
   15.8410    0.0024    0.0000 C   0  0  0  0  0  0  0  0  0  0  0  0
   17.0492    0.7000    0.0000 C   0  0  0  0  0  0  0  0  0  0  0  0
   18.2574    0.0024    0.0000 O   0  0  0  0  0  0  0  0  0  0  0  0
    7.3666    2.1000    0.0000 C   0  0  0  0  0  0  0  0  0  0  0  0
    9.7872    6.2927    0.0000 N   0  0  0  0  0  0  0  0  0  0  0  0
    8.5790    6.9903    0.0000 C   0  0  0  0  0  0  0  0  0  0  0  0
    8.4326    8.3826    0.0000 N   0  0  0  0  0  0  0  0  0  0  0  0
    7.0632    8.6737    0.0000 C   0  0  0  0  0  0  0  0  0  0  0  0
    6.3632    7.4613    0.0000 C   0  0  0  0  0  0  0  0  0  0  0  0
    7.3000    6.4209    0.0000 S   0  0  0  0  0  0  0  0  0  0  0  0
    4.9757    7.3154    0.0000 C   0  0  0  0  0  0  0  0  0  0  0  0
    4.1557    8.4441    0.0000 N   0  0  0  0  0  0  0  0  0  0  0  0
    4.4083    6.0409    0.0000 O   0  0  0  0  0  0  0  0  0  0  0  0
    2.7682    8.2983    0.0000 C   0  0  0  0  0  0  0  0  0  0  0  0
    1.8939    9.3917    0.0000 C   0  0  0  0  0  0  0  0  0  0  0  0
    0.5098    9.1813    0.0000 C   0  0  0  0  0  0  0  0  0  0  0  0
    0.0000    7.8775    0.0000 C   0  0  0  0  0  0  0  0  0  0  0  0
    0.8743    6.7840    0.0000 C   0  0  0  0  0  0  0  0  0  0  0  0
    2.2584    6.9944    0.0000 C   0  0  0  0  0  0  0  0  0  0  0  0
    2.4020   10.6911    0.0000 Cl  0  0  0  0  0  0  0  0  0  0  0  0
    3.1296    5.9047    0.0000 C   0  0  0  0  0  0  0  0  0  0  0  0
  1  2  2  0  0  0  0
  2  3  1  0  0  0  0
  3  4  2  0  0  0  0
  4  5  1  0  0  0  0
  5  6  2  0  0  0  0
  6  1  1  0  0  0  0
  4  7  1  0  0  0  0
  7  8  1  0  0  0  0
  8  9  1  0  0  0  0
  9 10  1  0  0  0  0
 10 11  1  0  0  0  0
 11 12  1  0  0  0  0
 12  7  1  0  0  0  0
 10 13  1  0  0  0  0
 13 14  1  0  0  0  0
 14 15  1  0  0  0  0
  2 16  1  0  0  0  0
  6 17  1  0  0  0  0
 17 18  1  0  0  0  0
 18 19  2  0  0  0  0
 19 20  1  0  0  0  0
 20 21  2  0  0  0  0
 21 22  1  0  0  0  0
 22 18  1  0  0  0  0
 21 23  1  0  0  0  0
 23 24  1  0  0  0  0
 23 25  2  0  0  0  0
 24 26  1  0  0  0  0
 26 27  2  0  0  0  0
 27 28  1  0  0  0  0
 28 29  2  0  0  0  0
 29 30  1  0  0  0  0
 30 31  2  0  0  0  0
 31 26  1  0  0  0  0
 27 32  1  0  0  0  0
 31 33  1  0  0  0  0
M  END
>  <Mol_ID> (9)
12

>  <Formula> (9)
C22H26ClN7O2S

>  <MolWeight> (9)
488.00554

>  <Cat> (9)
S1021

>  <Name> (9)
Dasatinib

>  <Synonyms> (9)
BMS-354825

>  <Target> (9)
Src, Bcr-Abl, c-Kit

>  <Form> (9)
Free Base

>  <CAS> (9)
302962-49-8

>  <URL> (9)
http://www.selleckchem.com/products/Dasatinib.html

$$$$
untitled.cdx
csChFnd80/05071909292D

 71 74  0  0  0  0  0  0  0  0999 V2000
    3.6331   14.1975    0.0000 C   0  0  2  0  0  0  0  0  0  0  0  0
    3.6331   12.7926    0.0000 C   0  0  0  0  0  0  0  0  0  0  0  0
    4.8497   12.0902    0.0000 C   0  0  1  0  0  0  0  0  0  0  0  0
    6.0664   12.7926    0.0000 C   0  0  0  0  0  0  0  0  0  0  0  0
    6.0664   14.1975    0.0000 C   0  0  0  0  0  0  0  0  0  0  0  0
    4.8497   14.8999    0.0000 C   0  0  1  0  0  0  0  0  0  0  0  0
    2.4206   14.8975    0.0000 O   0  0  0  0  0  0  0  0  0  0  0  0
    1.2082   14.1975    0.0000 C   0  0  0  0  0  0  0  0  0  0  0  0
    4.8497   16.2999    0.0000 O   0  0  0  0  0  0  0  0  0  0  0  0
    3.6373   16.9999    0.0000 P   0  0  0  0  0  0  0  0  0  0  0  0
    3.6373   18.3999    0.0000 C   0  0  0  0  0  0  0  0  0  0  0  0
    2.4249   16.2999    0.0000 O   0  0  0  0  0  0  0  0  0  0  0  0
    4.8497   17.6999    0.0000 C   0  0  0  0  0  0  0  0  0  0  0  0
    4.8497   10.6901    0.0000 C   0  0  0  0  0  0  0  0  0  0  0  0
    6.0622    9.9901    0.0000 C   0  0  2  0  0  0  0  0  0  0  0  0
    6.0622    8.5902    0.0000 C   0  0  2  0  0  0  0  0  0  0  0  0
    7.2746   10.6901    0.0000 C   0  0  0  0  0  0  0  0  0  0  0  0
    7.2746    7.8901    0.0000 C   0  0  0  0  0  0  0  0  0  0  0  0
    4.8497    7.8901    0.0000 O   0  0  0  0  0  0  0  0  0  0  0  0
    8.4870    8.5902    0.0000 C   0  0  0  0  0  0  0  0  0  0  0  0
    9.6995    7.8901    0.0000 C   0  0  1  0  0  0  0  0  0  0  0  0
    8.4870    9.9901    0.0000 O   0  0  0  0  0  0  0  0  0  0  0  0
   10.9119    8.5902    0.0000 C   0  0  0  0  0  0  0  0  0  0  0  0
    9.6995    6.4901    0.0000 C   0  0  0  0  0  0  0  0  0  0  0  0
   12.1244    7.8901    0.0000 C   0  0  0  0  0  0  0  0  0  0  0  0
   13.3368    8.5902    0.0000 C   0  0  2  0  0  0  0  0  0  0  0  0
   12.1244    6.4901    0.0000 C   0  0  0  0  0  0  0  0  0  0  0  0
   14.5492    7.8901    0.0000 C   0  0  1  0  0  0  0  0  0  0  0  0
   13.3368    9.9901    0.0000 O   0  0  0  0  0  0  0  0  0  0  0  0
   14.5492    6.4901    0.0000 O   0  0  0  0  0  0  0  0  0  0  0  0
   13.3368    5.7901    0.0000 C   0  0  0  0  0  0  0  0  0  0  0  0
    3.6373    8.5902    0.0000 C   0  0  0  0  0  0  0  0  0  0  0  0
    2.4249    7.8901    0.0000 C   0  0  2  0  0  0  0  0  0  0  0  0
    3.6373    9.9901    0.0000 O   0  0  0  0  0  0  0  0  0  0  0  0
    1.2124    8.5902    0.0000 C   0  0  0  0  0  0  0  0  0  0  0  0
    2.4249    6.4901    0.0000 N   0  0  0  0  0  0  0  0  0  0  0  0
    0.0000    7.8901    0.0000 C   0  0  0  0  0  0  0  0  0  0  0  0
    0.0000    6.4901    0.0000 C   0  0  0  0  0  0  0  0  0  0  0  0
    1.2124    5.7901    0.0000 C   0  0  0  0  0  0  0  0  0  0  0  0
    2.4249    9.2901    0.0000 H   0  0  0  0  0  0  0  0  0  0  0  0
    3.6373    5.7901    0.0000 C   0  0  0  0  0  0  0  0  0  0  0  0
    4.8497    6.4901    0.0000 O   0  0  0  0  0  0  0  0  0  0  0  0
    3.6373    4.3901    0.0000 C   0  0  0  0  0  0  0  0  0  0  0  0
    4.8497    3.6901    0.0000 C   0  0  2  0  0  0  0  0  0  0  0  0
    2.4249    3.6901    0.0000 O   0  0  0  0  0  0  0  0  0  0  0  0
    6.0622    4.3901    0.0000 O   0  0  0  0  0  0  0  0  0  0  0  0
    4.8497    2.2901    0.0000 C   0  0  1  0  0  0  0  0  0  0  0  0
    4.8497    5.0902    0.0000 O   0  0  0  0  0  0  0  0  0  0  0  0
    6.0622    1.5902    0.0000 C   0  0  0  0  0  0  0  0  0  0  0  0
    7.2746    2.2901    0.0000 C   0  0  0  0  0  0  0  0  0  0  0  0
    7.2746    3.6901    0.0000 C   0  0  1  0  0  0  0  0  0  0  0  0
    3.6373    1.5902    0.0000 C   0  0  0  0  0  0  0  0  0  0  0  0
    8.4870    4.3901    0.0000 C   0  0  0  0  0  0  0  0  0  0  0  0
    7.2746    5.0902    0.0000 H   0  0  0  0  0  0  0  0  0  0  0  0
    9.6995    3.6901    0.0000 C   0  0  1  0  0  0  0  0  0  0  0  0
   10.9119    4.3901    0.0000 C   0  0  0  0  0  0  0  0  0  0  0  0
    9.6995    2.2901    0.0000 O   0  0  0  0  0  0  0  0  0  0  0  0
   10.9119    1.5902    0.0000 C   0  0  0  0  0  0  0  0  0  0  0  0
   12.1244    3.6901    0.0000 C   0  0  0  0  0  0  0  0  0  0  0  0
   10.9119    5.7901    0.0000 C   0  0  0  0  0  0  0  0  0  0  0  0
   13.3368    4.3901    0.0000 C   0  0  0  0  0  0  0  0  0  0  0  0
   14.5492    3.6901    0.0000 C   0  0  0  0  0  0  0  0  0  0  0  0
   15.7617    4.3901    0.0000 C   0  0  0  0  0  0  0  0  0  0  0  0
   16.9741    3.6901    0.0000 C   0  0  0  0  0  0  0  0  0  0  0  0
   18.1865    4.3901    0.0000 C   0  0  1  0  0  0  0  0  0  0  0  0
   19.3990    3.6901    0.0000 C   0  0  0  0  0  0  0  0  0  0  0  0
   18.1865    5.7901    0.0000 C   0  0  0  0  0  0  0  0  0  0  0  0
   16.9741    6.4901    0.0000 C   0  0  2  0  0  0  0  0  0  0  0  0
   16.9741    7.8901    0.0000 C   0  0  0  0  0  0  0  0  0  0  0  0
   15.7617    5.7901    0.0000 C   0  0  0  0  0  0  0  0  0  0  0  0
   17.9640    8.8801    0.0000 O   0  0  0  0  0  0  0  0  0  0  0  0
  1  2  1  0  0  0  0
  2  3  1  0  0  0  0
  3  4  1  0  0  0  0
  4  5  1  0  0  0  0
  5  6  1  0  0  0  0
  6  1  1  0  0  0  0
  1  7  1  1  0  0  0
  7  8  1  0  0  0  0
  6  9  1  6  0  0  0
  9 10  1  0  0  0  0
 10 11  1  0  0  0  0
 10 12  2  0  0  0  0
 10 13  1  0  0  0  0
  3 14  1  1  0  0  0
 14 15  1  0  0  0  0
 16 15  1  6  0  0  0
 15 17  1  1  0  0  0
 16 18  1  0  0  0  0
 16 19  1  0  0  0  0
 18 20  1  0  0  0  0
 20 21  1  0  0  0  0
 20 22  2  0  0  0  0
 21 23  1  0  0  0  0
 21 24  1  1  0  0  0
 23 25  2  0  0  0  0
 25 26  1  0  0  0  0
 25 27  1  0  0  0  0
 26 28  1  0  0  0  0
 26 29  1  1  0  0  0
 28 30  1  6  0  0  0
 30 31  1  0  0  0  0
 19 32  1  0  0  0  0
 32 33  1  0  0  0  0
 32 34  2  0  0  0  0
 33 35  1  0  0  0  0
 33 36  1  0  0  0  0
 35 37  1  0  0  0  0
 37 38  1  0  0  0  0
 38 39  1  0  0  0  0
 39 36  1  0  0  0  0
 33 40  1  6  0  0  0
 36 41  1  0  0  0  0
 41 42  2  0  0  0  0
 41 43  1  0  0  0  0
 43 44  1  0  0  0  0
 43 45  2  0  0  0  0
 44 46  1  0  0  0  0
 44 47  1  0  0  0  0
 44 48  1  1  0  0  0
 47 49  1  0  0  0  0
 49 50  1  0  0  0  0
 50 51  1  0  0  0  0
 51 46  1  0  0  0  0
 47 52  1  1  0  0  0
 51 53  1  0  0  0  0
 51 54  1  1  0  0  0
 53 55  1  0  0  0  0
 55 56  1  0  0  0  0
 55 57  1  1  0  0  0
 57 58  1  0  0  0  0
 56 59  2  0  0  0  0
 56 60  1  0  0  0  0
 59 61  1  0  0  0  0
 61 62  2  0  0  0  0
 62 63  1  0  0  0  0
 63 64  2  0  0  0  0
 64 65  1  0  0  0  0
 65 66  1  6  0  0  0
 65 67  1  0  0  0  0
 67 68  1  0  0  0  0
 68 69  1  0  0  0  0
 68 70  1  1  0  0  0
 28 69  1  0  0  0  0
 69 71  2  0  0  0  0
M  END
>  <Mol_ID> (10)
13

>  <Formula> (10)
C53H84NO14P

>  <MolWeight> (10)
990.206121

>  <Cat> (10)
S1022

>  <Name> (10)
Deforolimus (MK-8669) 

>  <Synonyms> (10)
AP23573, MK-8669

>  <Target> (10)
mTOR

>  <Form> (10)
Free Base

>  <CAS> (10)
572924-54-0

>  <URL> (10)
http://www.selleckchem.com/products/Deforolimus.html

$$$$

csChFnd80/05071909292D

 29 33  0  0  0  0  0  0  0  0999 V2000
    2.7999   -8.4932    0.0000 C   0  0  0  0  0  0  0  0  0  0  0  0
    2.7999   -9.8931    0.0000 C   0  0  0  0  0  0  0  0  0  0  0  0
    4.0122  -10.5931    0.0000 C   0  0  0  0  0  0  0  0  0  0  0  0
    5.2247   -9.8931    0.0000 C   0  0  0  0  0  0  0  0  0  0  0  0
    5.2247   -8.4932    0.0000 C   0  0  0  0  0  0  0  0  0  0  0  0
    4.0122   -7.7932    0.0000 C   0  0  0  0  0  0  0  0  0  0  0  0
    6.4371   -7.7932    0.0000 C   0  0  0  0  0  0  0  0  0  0  0  0
    6.4371   -6.3932    0.0000 C   0  0  0  0  0  0  0  0  0  0  0  0
    5.2247   -5.6932    0.0000 C   0  0  0  0  0  0  0  0  0  0  0  0
    4.0122   -6.3932    0.0000 N   0  0  0  0  0  0  0  0  0  0  0  0
    5.2247   -4.2981    0.0000 O   0  0  0  0  0  0  0  0  0  0  0  0
    7.6453   -8.4908    0.0000 N   0  0  0  0  0  0  0  0  0  0  0  0
    7.6453   -5.6956    0.0000 C   0  0  0  0  0  0  0  0  0  0  0  0
    8.9242   -6.2651    0.0000 N   0  0  0  0  0  0  0  0  0  0  0  0
    9.8610   -5.2247    0.0000 C   0  0  0  0  0  0  0  0  0  0  0  0
    9.1610   -4.0122    0.0000 C   0  0  0  0  0  0  0  0  0  0  0  0
    7.7917   -4.3033    0.0000 N   0  0  0  0  0  0  0  0  0  0  0  0
   11.2610   -5.2247    0.0000 C   0  0  0  0  0  0  0  0  0  0  0  0
   11.9610   -4.0122    0.0000 C   0  0  0  0  0  0  0  0  0  0  0  0
   11.2610   -2.7999    0.0000 C   0  0  0  0  0  0  0  0  0  0  0  0
    9.8610   -2.7999    0.0000 C   0  0  0  0  0  0  0  0  0  0  0  0
   13.3560   -4.0122    0.0000 N   0  0  0  0  0  0  0  0  0  0  0  0
   14.0560   -5.2247    0.0000 C   0  0  0  0  0  0  0  0  0  0  0  0
   15.4560   -5.2247    0.0000 C   0  0  0  0  0  0  0  0  0  0  0  0
   16.1560   -4.0122    0.0000 N   0  0  0  0  0  0  0  0  0  0  0  0
   15.4560   -2.7999    0.0000 C   0  0  0  0  0  0  0  0  0  0  0  0
   14.0560   -2.7999    0.0000 C   0  0  0  0  0  0  0  0  0  0  0  0
   17.5512   -4.0122    0.0000 C   0  0  0  0  0  0  0  0  0  0  0  0
    6.4329  -10.5907    0.0000 F   0  0  0  0  0  0  0  0  0  0  0  0
  1  2  2  0  0  0  0
  2  3  1  0  0  0  0
  3  4  2  0  0  0  0
  4  5  1  0  0  0  0
  5  6  2  0  0  0  0
  6  1  1  0  0  0  0
  5  7  1  0  0  0  0
  7  8  2  0  0  0  0
  8  9  1  0  0  0  0
  9 10  1  0  0  0  0
 10  6  1  0  0  0  0
  9 11  2  0  0  0  0
  7 12  1  0  0  0  0
  8 13  1  0  0  0  0
 13 14  1  0  0  0  0
 14 15  1  0  0  0  0
 15 16  2  0  0  0  0
 16 17  1  0  0  0  0
 17 13  2  0  0  0  0
 15 18  1  0  0  0  0
 18 19  2  0  0  0  0
 19 20  1  0  0  0  0
 20 21  2  0  0  0  0
 21 16  1  0  0  0  0
 19 22  1  0  0  0  0
 22 23  1  0  0  0  0
 23 24  1  0  0  0  0
 24 25  1  0  0  0  0
 25 26  1  0  0  0  0
 26 27  1  0  0  0  0
 27 22  1  0  0  0  0
 25 28  1  0  0  0  0
  4 29  1  0  0  0  0
M  END
>  <Mol_ID> (11)
14

>  <Formula> (11)
C21H21FN6O

>  <MolWeight> (11)
392.4294432

>  <Cat> (11)
S1018

>  <Name> (11)
Dovitinib (TKI-258, CHIR-258)

>  <Synonyms> (11)
N/A

>  <Target> (11)
c-Kit, FGFR, Flt, VEGFR, PDGFR 

>  <Form> (11)
Free base

>  <CAS> (11)
405169-16-6

>  <URL> (11)
http://www.selleckchem.com/products/CHIR-258.html

$$$$
untitled.cdx
csChFnd80/05071909292D

 31 34  0  0  0  0  0  0  0  0999 V2000
    8.4660    6.2927    0.0000 C   0  0  0  0  0  0  0  0  0  0  0  0
    8.4660    4.8927    0.0000 C   0  0  0  0  0  0  0  0  0  0  0  0
    9.6784    4.1927    0.0000 C   0  0  0  0  0  0  0  0  0  0  0  0
   10.8909    4.8927    0.0000 C   0  0  0  0  0  0  0  0  0  0  0  0
   10.8909    6.2927    0.0000 C   0  0  0  0  0  0  0  0  0  0  0  0
    9.6784    6.9927    0.0000 C   0  0  0  0  0  0  0  0  0  0  0  0
   12.1033    4.1927    0.0000 C   0  0  0  0  0  0  0  0  0  0  0  0
   13.3157    4.8927    0.0000 N   0  0  0  0  0  0  0  0  0  0  0  0
   13.3157    6.2927    0.0000 C   0  0  0  0  0  0  0  0  0  0  0  0
   12.1033    6.9927    0.0000 N   0  0  0  0  0  0  0  0  0  0  0  0
   12.1033    2.7976    0.0000 N   0  0  0  0  0  0  0  0  0  0  0  0
   13.3115    2.1000    0.0000 C   0  0  0  0  0  0  0  0  0  0  0  0
   13.3115    0.7000    0.0000 C   0  0  0  0  0  0  0  0  0  0  0  0
   14.5240    0.0000    0.0000 C   0  0  0  0  0  0  0  0  0  0  0  0
   15.7364    0.7000    0.0000 C   0  0  0  0  0  0  0  0  0  0  0  0
   15.7364    2.1000    0.0000 C   0  0  0  0  0  0  0  0  0  0  0  0
   14.5240    2.8000    0.0000 C   0  0  0  0  0  0  0  0  0  0  0  0
   16.9446    2.7976    0.0000 Cl  0  0  0  0  0  0  0  0  0  0  0  0
   16.9446    0.0024    0.0000 F   0  0  0  0  0  0  0  0  0  0  0  0
    7.2578    6.9903    0.0000 O   0  0  0  0  0  0  0  0  0  0  0  0
    6.0496    6.2927    0.0000 C   0  0  0  0  0  0  0  0  0  0  0  0
    7.2578    4.1951    0.0000 O   0  0  0  0  0  0  0  0  0  0  0  0
    6.0496    4.8927    0.0000 C   0  0  0  0  0  0  0  0  0  0  0  0
    4.8413    4.1951    0.0000 C   0  0  0  0  0  0  0  0  0  0  0  0
    3.6331    4.8927    0.0000 C   0  0  0  0  0  0  0  0  0  0  0  0
    2.4249    4.1951    0.0000 N   0  0  0  0  0  0  0  0  0  0  0  0
    1.2124    4.8951    0.0000 C   0  0  0  0  0  0  0  0  0  0  0  0
    0.0000    4.1951    0.0000 C   0  0  0  0  0  0  0  0  0  0  0  0
    0.0000    2.7951    0.0000 O   0  0  0  0  0  0  0  0  0  0  0  0
    1.2124    2.0951    0.0000 C   0  0  0  0  0  0  0  0  0  0  0  0
    2.4249    2.7951    0.0000 C   0  0  0  0  0  0  0  0  0  0  0  0
  1  2  2  0  0  0  0
  2  3  1  0  0  0  0
  3  4  2  0  0  0  0
  4  5  1  0  0  0  0
  5  6  2  0  0  0  0
  6  1  1  0  0  0  0
  4  7  1  0  0  0  0
  7  8  2  0  0  0  0
  8  9  1  0  0  0  0
  9 10  2  0  0  0  0
 10  5  1  0  0  0  0
  7 11  1  0  0  0  0
 11 12  1  0  0  0  0
 12 13  2  0  0  0  0
 13 14  1  0  0  0  0
 14 15  2  0  0  0  0
 15 16  1  0  0  0  0
 16 17  2  0  0  0  0
 17 12  1  0  0  0  0
 16 18  1  0  0  0  0
 15 19  1  0  0  0  0
  1 20  1  0  0  0  0
 20 21  1  0  0  0  0
  2 22  1  0  0  0  0
 22 23  1  0  0  0  0
 23 24  1  0  0  0  0
 24 25  1  0  0  0  0
 25 26  1  0  0  0  0
 26 27  1  0  0  0  0
 27 28  1  0  0  0  0
 28 29  1  0  0  0  0
 29 30  1  0  0  0  0
 30 31  1  0  0  0  0
 31 26  1  0  0  0  0
M  END
>  <Mol_ID> (12)
15

>  <Formula> (12)
C22H24ClFN4O3

>  <MolWeight> (12)
446.9023632

>  <Cat> (12)
S1025

>  <Name> (12)
Gefitinib (ZD1839)

>  <Synonyms> (12)
N/A

>  <Target> (12)
EGFR

>  <Form> (12)
Free Base

>  <CAS> (12)
184475-35-2

>  <URL> (12)
http://www.selleckchem.com/products/Gefitinib.html

$$$$
Imatinib Mesylate.cdx
csChFnd80/05071909292D

 42 45  0  0  0  0  0  0  0  0999 V2000
   12.0991    5.0167    0.0000 C   0  0  0  0  0  0  0  0  0  0  0  0
   12.0991    3.6167    0.0000 C   0  0  0  0  0  0  0  0  0  0  0  0
   13.3115    2.9167    0.0000 C   0  0  0  0  0  0  0  0  0  0  0  0
   14.5240    3.6167    0.0000 C   0  0  0  0  0  0  0  0  0  0  0  0
   14.5240    5.0167    0.0000 C   0  0  0  0  0  0  0  0  0  0  0  0
   13.3115    5.7167    0.0000 C   0  0  0  0  0  0  0  0  0  0  0  0
   15.7322    5.7142    0.0000 N   0  0  0  0  0  0  0  0  0  0  0  0
   15.7322    2.9191    0.0000 C   0  0  0  0  0  0  0  0  0  0  0  0
   16.9404    5.0167    0.0000 C   0  0  0  0  0  0  0  0  0  0  0  0
   16.9404    3.6167    0.0000 N   0  0  0  0  0  0  0  0  0  0  0  0
   18.1529    2.9167    0.0000 C   0  0  0  0  0  0  0  0  0  0  0  0
   19.3653    3.6167    0.0000 C   0  0  0  0  0  0  0  0  0  0  0  0
   19.3653    5.0167    0.0000 C   0  0  0  0  0  0  0  0  0  0  0  0
   18.1529    5.7167    0.0000 N   0  0  0  0  0  0  0  0  0  0  0  0
   20.5735    5.7142    0.0000 C   0  0  0  0  0  0  0  0  0  0  0  0
   21.7860    5.0142    0.0000 C   0  0  0  0  0  0  0  0  0  0  0  0
   22.9984    5.7142    0.0000 C   0  0  0  0  0  0  0  0  0  0  0  0
   22.9984    7.1142    0.0000 C   0  0  0  0  0  0  0  0  0  0  0  0
   21.7860    7.8142    0.0000 N   0  0  0  0  0  0  0  0  0  0  0  0
   20.5735    7.1142    0.0000 C   0  0  0  0  0  0  0  0  0  0  0  0
   10.8909    5.7142    0.0000 N   0  0  0  0  0  0  0  0  0  0  0  0
    9.6826    5.0167    0.0000 C   0  0  0  0  0  0  0  0  0  0  0  0
    9.6826    3.6215    0.0000 O   0  0  0  0  0  0  0  0  0  0  0  0
    8.4744    5.7142    0.0000 C   0  0  0  0  0  0  0  0  0  0  0  0
    8.4744    7.1142    0.0000 C   0  0  0  0  0  0  0  0  0  0  0  0
    7.2620    7.8142    0.0000 C   0  0  0  0  0  0  0  0  0  0  0  0
    6.0496    7.1142    0.0000 C   0  0  0  0  0  0  0  0  0  0  0  0
    6.0496    5.7142    0.0000 C   0  0  0  0  0  0  0  0  0  0  0  0
    7.2620    5.0142    0.0000 C   0  0  0  0  0  0  0  0  0  0  0  0
    4.8413    7.8118    0.0000 C   0  0  0  0  0  0  0  0  0  0  0  0
    3.6331    7.1142    0.0000 N   0  0  0  0  0  0  0  0  0  0  0  0
    2.4207    7.8142    0.0000 C   0  0  0  0  0  0  0  0  0  0  0  0
    1.2082    7.1142    0.0000 C   0  0  0  0  0  0  0  0  0  0  0  0
    1.2082    5.7142    0.0000 N   0  0  0  0  0  0  0  0  0  0  0  0
    2.4207    5.0142    0.0000 C   0  0  0  0  0  0  0  0  0  0  0  0
    3.6331    5.7142    0.0000 C   0  0  0  0  0  0  0  0  0  0  0  0
    0.0000    5.0167    0.0000 C   0  0  0  0  0  0  0  0  0  0  0  0
    4.0876    1.4000    0.0000 O   0  0  0  0  0  0  0  0  0  0  0  0
    5.4876    1.4000    0.0000 S   0  0  0  0  0  0  0  0  0  0  0  0
    6.8876    1.4000    0.0000 C   0  0  0  0  0  0  0  0  0  0  0  0
    5.4876    2.8000    0.0000 O   0  0  0  0  0  0  0  0  0  0  0  0
    5.4876    0.0000    0.0000 O   0  0  0  0  0  0  0  0  0  0  0  0
  1  2  2  0  0  0  0
  2  3  1  0  0  0  0
  3  4  2  0  0  0  0
  4  5  1  0  0  0  0
  5  6  2  0  0  0  0
  6  1  1  0  0  0  0
  5  7  1  0  0  0  0
  4  8  1  0  0  0  0
  7  9  1  0  0  0  0
  9 10  2  0  0  0  0
 10 11  1  0  0  0  0
 11 12  2  0  0  0  0
 12 13  1  0  0  0  0
 13 14  2  0  0  0  0
 14  9  1  0  0  0  0
 13 15  1  0  0  0  0
 15 16  2  0  0  0  0
 16 17  1  0  0  0  0
 17 18  2  0  0  0  0
 18 19  1  0  0  0  0
 19 20  2  0  0  0  0
 20 15  1  0  0  0  0
  1 21  1  0  0  0  0
 21 22  1  0  0  0  0
 22 23  2  0  0  0  0
 22 24  1  0  0  0  0
 24 25  2  0  0  0  0
 25 26  1  0  0  0  0
 26 27  2  0  0  0  0
 27 28  1  0  0  0  0
 28 29  2  0  0  0  0
 29 24  1  0  0  0  0
 27 30  1  0  0  0  0
 30 31  1  0  0  0  0
 31 32  1  0  0  0  0
 32 33  1  0  0  0  0
 33 34  1  0  0  0  0
 34 35  1  0  0  0  0
 35 36  1  0  0  0  0
 36 31  1  0  0  0  0
 34 37  1  0  0  0  0
 38 39  1  0  0  0  0
 39 40  1  0  0  0  0
 39 41  2  0  0  0  0
 39 42  2  0  0  0  0
M  END
>  <Mol_ID> (13)
16

>  <Formula> (13)
C30H35N7O4S

>  <MolWeight> (13)
589.7084

>  <Cat> (13)
S1026

>  <Name> (13)
Imatinib Mesylate (STI571)

>  <Synonyms> (13)
CGP-57148B, ST-1571 Mesylate

>  <Target> (13)
PDGFR, c-Kit, Bcr-Abl

>  <Form> (13)
Mesylate

>  <CAS> (13)
220127-57-1

>  <URL> (13)
http://www.selleckchem.com/products/Imatinib-Mesylate.html

$$$$
Lapatinib Ditosylate.cdx
csChFnd80/05071909292D

 62 66  0  0  0  0  0  0  0  0999 V2000
   10.0945   13.1833    0.0000 C   0  0  0  0  0  0  0  0  0  0  0  0
   10.0945   11.7833    0.0000 C   0  0  0  0  0  0  0  0  0  0  0  0
   11.3069   11.0833    0.0000 C   0  0  0  0  0  0  0  0  0  0  0  0
   12.5194   11.7833    0.0000 C   0  0  0  0  0  0  0  0  0  0  0  0
   12.5194   13.1833    0.0000 C   0  0  0  0  0  0  0  0  0  0  0  0
   11.3069   13.8833    0.0000 C   0  0  0  0  0  0  0  0  0  0  0  0
   13.7318   11.0833    0.0000 C   0  0  0  0  0  0  0  0  0  0  0  0
   14.9442   11.7833    0.0000 N   0  0  0  0  0  0  0  0  0  0  0  0
   14.9442   13.1833    0.0000 C   0  0  0  0  0  0  0  0  0  0  0  0
   13.7318   13.8833    0.0000 N   0  0  0  0  0  0  0  0  0  0  0  0
   13.7318    9.6882    0.0000 N   0  0  0  0  0  0  0  0  0  0  0  0
   14.9400    8.9906    0.0000 C   0  0  0  0  0  0  0  0  0  0  0  0
   14.9400    7.5906    0.0000 C   0  0  0  0  0  0  0  0  0  0  0  0
   16.1525    6.8906    0.0000 C   0  0  0  0  0  0  0  0  0  0  0  0
   17.3649    7.5906    0.0000 C   0  0  0  0  0  0  0  0  0  0  0  0
   17.3649    8.9906    0.0000 C   0  0  0  0  0  0  0  0  0  0  0  0
   16.1525    9.6906    0.0000 C   0  0  0  0  0  0  0  0  0  0  0  0
   18.5731    9.6882    0.0000 Cl  0  0  0  0  0  0  0  0  0  0  0  0
   18.5731    6.8931    0.0000 O   0  0  0  0  0  0  0  0  0  0  0  0
   19.7856    7.5931    0.0000 C   0  0  0  0  0  0  0  0  0  0  0  0
   20.9980    6.8931    0.0000 C   0  0  0  0  0  0  0  0  0  0  0  0
   20.9980    5.4931    0.0000 C   0  0  0  0  0  0  0  0  0  0  0  0
   22.2104    4.7931    0.0000 C   0  0  0  0  0  0  0  0  0  0  0  0
   23.4229    5.4931    0.0000 C   0  0  0  0  0  0  0  0  0  0  0  0
   23.4229    6.8931    0.0000 C   0  0  0  0  0  0  0  0  0  0  0  0
   22.2104    7.5931    0.0000 C   0  0  0  0  0  0  0  0  0  0  0  0
   24.6311    7.5906    0.0000 F   0  0  0  0  0  0  0  0  0  0  0  0
    8.8863   11.0858    0.0000 C   0  0  0  0  0  0  0  0  0  0  0  0
    7.6073   11.6552    0.0000 O   0  0  0  0  0  0  0  0  0  0  0  0
    6.6705   10.6148    0.0000 C   0  0  0  0  0  0  0  0  0  0  0  0
    7.3705    9.4024    0.0000 C   0  0  0  0  0  0  0  0  0  0  0  0
    8.7399    9.6934    0.0000 C   0  0  0  0  0  0  0  0  0  0  0  0
    5.2830   10.7606    0.0000 C   0  0  0  0  0  0  0  0  0  0  0  0
    4.4630    9.6319    0.0000 N   0  0  0  0  0  0  0  0  0  0  0  0
    3.0755    9.7778    0.0000 C   0  0  0  0  0  0  0  0  0  0  0  0
    2.2296    8.6683    0.0000 C   0  0  0  0  0  0  0  0  0  0  0  0
    0.8459    8.8461    0.0000 S   0  0  0  0  0  0  0  0  0  0  0  0
    0.3080   10.1334    0.0000 O   0  0  0  0  0  0  0  0  0  0  0  0
    0.0000    7.7366    0.0000 C   0  0  0  0  0  0  0  0  0  0  0  0
    1.6917    9.9556    0.0000 O   0  0  0  0  0  0  0  0  0  0  0  0
   15.6263    4.9521    0.0000 C   0  0  0  0  0  0  0  0  0  0  0  0
   14.4145    4.2524    0.0000 C   0  0  0  0  0  0  0  0  0  0  0  0
   13.2027    4.9521    0.0000 C   0  0  0  0  0  0  0  0  0  0  0  0
   13.2027    6.3514    0.0000 C   0  0  0  0  0  0  0  0  0  0  0  0
   14.4145    7.0510    0.0000 C   0  0  0  0  0  0  0  0  0  0  0  0
   15.6263    6.3514    0.0000 C   0  0  0  0  0  0  0  0  0  0  0  0
   14.4145    2.8531    0.0000 C   0  0  0  0  0  0  0  0  0  0  0  0
   14.4145    8.4503    0.0000 S   0  0  0  0  0  0  0  0  0  0  0  0
   14.4145    9.8496    0.0000 O   0  0  0  0  0  0  0  0  0  0  0  0
   15.8138    8.4503    0.0000 O   0  0  0  0  0  0  0  0  0  0  0  0
   13.0152    8.4503    0.0000 O   0  0  0  0  0  0  0  0  0  0  0  0
   11.4284    4.9521    0.0000 C   0  0  0  0  0  0  0  0  0  0  0  0
   10.2166    4.2524    0.0000 C   0  0  0  0  0  0  0  0  0  0  0  0
    9.0048    4.9521    0.0000 C   0  0  0  0  0  0  0  0  0  0  0  0
    9.0048    6.3514    0.0000 C   0  0  0  0  0  0  0  0  0  0  0  0
   10.2166    7.0510    0.0000 C   0  0  0  0  0  0  0  0  0  0  0  0
   11.4284    6.3514    0.0000 C   0  0  0  0  0  0  0  0  0  0  0  0
   10.2166    2.8531    0.0000 C   0  0  0  0  0  0  0  0  0  0  0  0
   10.2166    8.4503    0.0000 S   0  0  0  0  0  0  0  0  0  0  0  0
   10.2166    9.8496    0.0000 O   0  0  0  0  0  0  0  0  0  0  0  0
   11.6159    8.4503    0.0000 O   0  0  0  0  0  0  0  0  0  0  0  0
    8.8173    8.4503    0.0000 O   0  0  0  0  0  0  0  0  0  0  0  0
  1  2  2  0  0  0  0
  2  3  1  0  0  0  0
  3  4  2  0  0  0  0
  4  5  1  0  0  0  0
  5  6  2  0  0  0  0
  6  1  1  0  0  0  0
  4  7  1  0  0  0  0
  7  8  2  0  0  0  0
  8  9  1  0  0  0  0
  9 10  2  0  0  0  0
 10  5  1  0  0  0  0
  7 11  1  0  0  0  0
 11 12  1  0  0  0  0
 12 13  2  0  0  0  0
 13 14  1  0  0  0  0
 14 15  2  0  0  0  0
 15 16  1  0  0  0  0
 16 17  2  0  0  0  0
 17 12  1  0  0  0  0
 16 18  1  0  0  0  0
 15 19  1  0  0  0  0
 19 20  1  0  0  0  0
 20 21  1  0  0  0  0
 21 22  2  0  0  0  0
 22 23  1  0  0  0  0
 23 24  2  0  0  0  0
 24 25  1  0  0  0  0
 25 26  2  0  0  0  0
 26 21  1  0  0  0  0
 25 27  1  0  0  0  0
  2 28  1  0  0  0  0
 28 29  1  0  0  0  0
 29 30  1  0  0  0  0
 30 31  2  0  0  0  0
 31 32  1  0  0  0  0
 32 28  2  0  0  0  0
 30 33  1  0  0  0  0
 33 34  1  0  0  0  0
 34 35  1  0  0  0  0
 35 36  1  0  0  0  0
 36 37  1  0  0  0  0
 37 38  2  0  0  0  0
 37 39  1  0  0  0  0
 37 40  2  0  0  0  0
 41 42  2  0  0  0  0
 42 43  1  0  0  0  0
 43 44  2  0  0  0  0
 44 45  1  0  0  0  0
 45 46  2  0  0  0  0
 46 41  1  0  0  0  0
 42 47  1  0  0  0  0
 45 48  1  0  0  0  0
 48 49  1  0  0  0  0
 48 50  2  0  0  0  0
 48 51  2  0  0  0  0
 52 53  2  0  0  0  0
 53 54  1  0  0  0  0
 54 55  2  0  0  0  0
 55 56  1  0  0  0  0
 56 57  2  0  0  0  0
 57 52  1  0  0  0  0
 53 58  1  0  0  0  0
 56 59  1  0  0  0  0
 59 60  1  0  0  0  0
 59 61  2  0  0  0  0
 59 62  2  0  0  0  0
M  END
>  <Mol_ID> (14)
17

>  <Formula> (14)
C43H42ClFN4O10S3

>  <MolWeight> (14)
925.4607832

>  <Cat> (14)
S1028

>  <Name> (14)
Lapatinib (GW-572016) Ditosylate

>  <Synonyms> (14)
GW-57201

>  <Target> (14)
EGFR, HER2

>  <Form> (14)
Ditosylat

>  <CAS> (14)
388082-77-7

>  <URL> (14)
http://www.selleckchem.com/products/Lapatinib-Ditosylate.html

$$$$
Motesanib Diphosphate(AMG-706).cdx
csChFnd80/05071909292D

 38 39  0  0  0  0  0  0  0  0999 V2000
    0.0000    7.2771    0.0000 C   0  0  0  0  0  0  0  0  0  0  0  0
    0.0000    5.8771    0.0000 C   0  0  0  0  0  0  0  0  0  0  0  0
    1.2124    5.1771    0.0000 N   0  0  0  0  0  0  0  0  0  0  0  0
    2.4249    5.8771    0.0000 C   0  0  0  0  0  0  0  0  0  0  0  0
    2.4249    7.2771    0.0000 C   0  0  0  0  0  0  0  0  0  0  0  0
    1.2124    7.9771    0.0000 C   0  0  0  0  0  0  0  0  0  0  0  0
    1.2124    9.3722    0.0000 C   0  0  0  0  0  0  0  0  0  0  0  0
    2.4207   10.0698    0.0000 N   0  0  0  0  0  0  0  0  0  0  0  0
    2.4207   11.4649    0.0000 C   0  0  0  0  0  0  0  0  0  0  0  0
    3.6331   12.1649    0.0000 C   0  0  0  0  0  0  0  0  0  0  0  0
    3.6331   13.5649    0.0000 C   0  0  0  0  0  0  0  0  0  0  0  0
    2.4207   14.2649    0.0000 C   0  0  0  0  0  0  0  0  0  0  0  0
    1.2082   13.5649    0.0000 C   0  0  0  0  0  0  0  0  0  0  0  0
    1.2082   12.1649    0.0000 N   0  0  0  0  0  0  0  0  0  0  0  0
    4.8413   11.4674    0.0000 C   0  0  0  0  0  0  0  0  0  0  0  0
    4.8413   10.0722    0.0000 O   0  0  0  0  0  0  0  0  0  0  0  0
    6.0496   12.1649    0.0000 N   0  0  0  0  0  0  0  0  0  0  0  0
    7.2578   11.4674    0.0000 C   0  0  0  0  0  0  0  0  0  0  0  0
    7.2578   10.0674    0.0000 C   0  0  0  0  0  0  0  0  0  0  0  0
    8.4702    9.3674    0.0000 C   0  0  0  0  0  0  0  0  0  0  0  0
    9.6826   10.0674    0.0000 C   0  0  0  0  0  0  0  0  0  0  0  0
    9.6826   11.4674    0.0000 C   0  0  0  0  0  0  0  0  0  0  0  0
    8.4702   12.1674    0.0000 C   0  0  0  0  0  0  0  0  0  0  0  0
   11.0141    9.6347    0.0000 C   0  0  0  0  0  0  0  0  0  0  0  0
   11.8370   10.7674    0.0000 C   0  0  0  0  0  0  0  0  0  0  0  0
   11.0141   11.9000    0.0000 N   0  0  0  0  0  0  0  0  0  0  0  0
   12.3921    9.4165    0.0000 C   0  0  0  0  0  0  0  0  0  0  0  0
   10.0276    8.6482    0.0000 C   0  0  0  0  0  0  0  0  0  0  0  0
    8.2946    7.1311    0.0000 P   0  0  0  0  0  0  0  0  0  0  0  0
    6.8960    7.1311    0.0000 O   0  0  0  0  0  0  0  0  0  0  0  0
    8.2946    8.5297    0.0000 O   0  0  0  0  0  0  0  0  0  0  0  0
    9.6932    7.1311    0.0000 O   0  0  0  0  0  0  0  0  0  0  0  0
    8.2946    5.7325    0.0000 O   0  0  0  0  0  0  0  0  0  0  0  0
    4.0947    7.1311    0.0000 P   0  0  0  0  0  0  0  0  0  0  0  0
    2.6961    7.1311    0.0000 O   0  0  0  0  0  0  0  0  0  0  0  0
    4.0947    8.5297    0.0000 O   0  0  0  0  0  0  0  0  0  0  0  0
    5.4933    7.1311    0.0000 O   0  0  0  0  0  0  0  0  0  0  0  0
    4.0947    5.7325    0.0000 O   0  0  0  0  0  0  0  0  0  0  0  0
  1  2  2  0  0  0  0
  2  3  1  0  0  0  0
  3  4  2  0  0  0  0
  4  5  1  0  0  0  0
  5  6  2  0  0  0  0
  6  1  1  0  0  0  0
  6  7  1  0  0  0  0
  7  8  1  0  0  0  0
  8  9  1  0  0  0  0
  9 10  2  0  0  0  0
 10 11  1  0  0  0  0
 11 12  2  0  0  0  0
 12 13  1  0  0  0  0
 13 14  2  0  0  0  0
 14  9  1  0  0  0  0
 10 15  1  0  0  0  0
 15 16  2  0  0  0  0
 15 17  1  0  0  0  0
 17 18  1  0  0  0  0
 18 19  2  0  0  0  0
 19 20  1  0  0  0  0
 20 21  2  0  0  0  0
 21 22  1  0  0  0  0
 22 23  2  0  0  0  0
 23 18  1  0  0  0  0
 21 24  1  0  0  0  0
 24 25  1  0  0  0  0
 25 26  1  0  0  0  0
 26 22  1  0  0  0  0
 24 27  1  0  0  0  0
 24 28  1  0  0  0  0
 29 30  1  0  0  0  0
 29 31  2  0  0  0  0
 29 32  1  0  0  0  0
 29 33  1  0  0  0  0
 34 35  1  0  0  0  0
 34 36  2  0  0  0  0
 34 37  1  0  0  0  0
 34 38  1  0  0  0  0
M  END
>  <Mol_ID> (15)
20

>  <Formula> (15)
C22H29N5O9P2

>  <MolWeight> (15)
569.441282

>  <Cat> (15)
S1032

>  <Name> (15)
Motesanib Diphosphate (AMG-706)

>  <Synonyms> (15)
AMG-706

>  <Target> (15)
VEGFR, PDGFR, c-Kit

>  <Form> (15)
Diphosphate

>  <CAS> (15)
857876-30-3

>  <URL> (15)
http://www.selleckchem.com/products/Motesanib-Diphosphate.html

$$$$
untitled.cdx
csChFnd80/05071909292D

 39 43  0  0  0  0  0  0  0  0999 V2000
   10.8610    2.1000    0.0000 C   0  0  0  0  0  0  0  0  0  0  0  0
   10.8610    0.7000    0.0000 C   0  0  0  0  0  0  0  0  0  0  0  0
   12.0735    0.0000    0.0000 C   0  0  0  0  0  0  0  0  0  0  0  0
   13.2859    0.7000    0.0000 C   0  0  0  0  0  0  0  0  0  0  0  0
   13.2859    2.1000    0.0000 C   0  0  0  0  0  0  0  0  0  0  0  0
   12.0735    2.8000    0.0000 C   0  0  0  0  0  0  0  0  0  0  0  0
   14.4941    2.7976    0.0000 N   0  0  0  0  0  0  0  0  0  0  0  0
   14.4941    0.0024    0.0000 C   0  0  0  0  0  0  0  0  0  0  0  0
   15.7023    2.1000    0.0000 C   0  0  0  0  0  0  0  0  0  0  0  0
   15.7023    0.7000    0.0000 N   0  0  0  0  0  0  0  0  0  0  0  0
   16.9148    0.0000    0.0000 C   0  0  0  0  0  0  0  0  0  0  0  0
   18.1272    0.7000    0.0000 C   0  0  0  0  0  0  0  0  0  0  0  0
   18.1272    2.1000    0.0000 C   0  0  0  0  0  0  0  0  0  0  0  0
   16.9148    2.8000    0.0000 N   0  0  0  0  0  0  0  0  0  0  0  0
   19.3354    2.7976    0.0000 C   0  0  0  0  0  0  0  0  0  0  0  0
   20.5479    2.0976    0.0000 C   0  0  0  0  0  0  0  0  0  0  0  0
   21.7603    2.7976    0.0000 N   0  0  0  0  0  0  0  0  0  0  0  0
   21.7603    4.1976    0.0000 C   0  0  0  0  0  0  0  0  0  0  0  0
   20.5479    4.8976    0.0000 C   0  0  0  0  0  0  0  0  0  0  0  0
   19.3354    4.1976    0.0000 C   0  0  0  0  0  0  0  0  0  0  0  0
    9.6528    2.7976    0.0000 C   0  0  0  0  0  0  0  0  0  0  0  0
    9.6528    4.1927    0.0000 O   0  0  0  0  0  0  0  0  0  0  0  0
    8.4446    2.1000    0.0000 N   0  0  0  0  0  0  0  0  0  0  0  0
    7.2363    2.7976    0.0000 C   0  0  0  0  0  0  0  0  0  0  0  0
    7.2363    4.1976    0.0000 C   0  0  0  0  0  0  0  0  0  0  0  0
    6.0239    4.8976    0.0000 C   0  0  0  0  0  0  0  0  0  0  0  0
    4.8115    4.1976    0.0000 C   0  0  0  0  0  0  0  0  0  0  0  0
    4.8115    2.7976    0.0000 C   0  0  0  0  0  0  0  0  0  0  0  0
    6.0239    2.0976    0.0000 C   0  0  0  0  0  0  0  0  0  0  0  0
    6.0239    6.2927    0.0000 C   0  0  0  0  0  0  0  0  0  0  0  0
    4.6239    6.2927    0.0000 F   0  0  0  0  0  0  0  0  0  0  0  0
    6.0239    7.6927    0.0000 F   0  0  0  0  0  0  0  0  0  0  0  0
    7.4239    6.2927    0.0000 F   0  0  0  0  0  0  0  0  0  0  0  0
    3.6032    2.1000    0.0000 N   0  0  0  0  0  0  0  0  0  0  0  0
    2.3243    2.6694    0.0000 C   0  0  0  0  0  0  0  0  0  0  0  0
    1.3875    1.6290    0.0000 C   0  0  0  0  0  0  0  0  0  0  0  0
    2.0875    0.4166    0.0000 N   0  0  0  0  0  0  0  0  0  0  0  0
    3.4569    0.7077    0.0000 C   0  0  0  0  0  0  0  0  0  0  0  0
    0.0000    1.7749    0.0000 C   0  0  0  0  0  0  0  0  0  0  0  0
  1  2  2  0  0  0  0
  2  3  1  0  0  0  0
  3  4  2  0  0  0  0
  4  5  1  0  0  0  0
  5  6  2  0  0  0  0
  6  1  1  0  0  0  0
  5  7  1  0  0  0  0
  4  8  1  0  0  0  0
  7  9  1  0  0  0  0
  9 10  2  0  0  0  0
 10 11  1  0  0  0  0
 11 12  2  0  0  0  0
 12 13  1  0  0  0  0
 13 14  2  0  0  0  0
 14  9  1  0  0  0  0
 13 15  1  0  0  0  0
 15 16  2  0  0  0  0
 16 17  1  0  0  0  0
 17 18  2  0  0  0  0
 18 19  1  0  0  0  0
 19 20  2  0  0  0  0
 20 15  1  0  0  0  0
  1 21  1  0  0  0  0
 21 22  2  0  0  0  0
 21 23  1  0  0  0  0
 23 24  1  0  0  0  0
 24 25  2  0  0  0  0
 25 26  1  0  0  0  0
 26 27  2  0  0  0  0
 27 28  1  0  0  0  0
 28 29  2  0  0  0  0
 29 24  1  0  0  0  0
 26 30  1  0  0  0  0
 28 34  1  0  0  0  0
 34 35  1  0  0  0  0
 35 36  2  0  0  0  0
 36 37  1  0  0  0  0
 37 38  2  0  0  0  0
 38 34  1  0  0  0  0
 36 39  1  0  0  0  0
 30 31  1  0  0  0  0
 30 32  1  0  0  0  0
 30 33  1  0  0  0  0
M  END
>  <Mol_ID> (16)
21

>  <Formula> (16)
C28H22F3N7O

>  <MolWeight> (16)
529.5157896

>  <Cat> (16)
S1033

>  <Name> (16)
Nilotinib (AMN-107)

>  <Synonyms> (16)
Tasigna 

>  <Target> (16)
Bcr-Abl

>  <Form> (16)
Free Base

>  <CAS> (16)
641571-10-0

>  <URL> (16)
http://www.selleckchem.com/products/Nilotinib.html

$$$$
untitled.cdx
csChFnd80/05071909292D

 32 34  0  0  0  0  0  0  0  0999 V2000
    1.2082    4.2274    0.0000 C   0  0  0  0  0  0  0  0  0  0  0  0
    1.2082    2.8274    0.0000 C   0  0  0  0  0  0  0  0  0  0  0  0
    2.4207    2.1274    0.0000 C   0  0  0  0  0  0  0  0  0  0  0  0
    3.6331    2.8274    0.0000 C   0  0  0  0  0  0  0  0  0  0  0  0
    3.6331    4.2274    0.0000 C   0  0  0  0  0  0  0  0  0  0  0  0
    2.4207    4.9274    0.0000 C   0  0  0  0  0  0  0  0  0  0  0  0
    0.0000    2.1298    0.0000 C   0  0  0  0  0  0  0  0  0  0  0  0
    2.4207    0.7322    0.0000 S   0  0  0  0  0  0  0  0  0  0  0  0
    3.6289    0.0347    0.0000 O   0  0  0  0  0  0  0  0  0  0  0  0
    1.2124    0.0347    0.0000 N   0  0  0  0  0  0  0  0  0  0  0  0
    3.6289    1.4298    0.0000 O   0  0  0  0  0  0  0  0  0  0  0  0
    4.8413    4.9250    0.0000 N   0  0  0  0  0  0  0  0  0  0  0  0
    6.0495    4.2274    0.0000 C   0  0  0  0  0  0  0  0  0  0  0  0
    6.0495    2.8274    0.0000 N   0  0  0  0  0  0  0  0  0  0  0  0
    7.2620    2.1274    0.0000 C   0  0  0  0  0  0  0  0  0  0  0  0
    8.4744    2.8274    0.0000 C   0  0  0  0  0  0  0  0  0  0  0  0
    8.4744    4.2274    0.0000 C   0  0  0  0  0  0  0  0  0  0  0  0
    7.2620    4.9274    0.0000 N   0  0  0  0  0  0  0  0  0  0  0  0
    9.6826    4.9250    0.0000 N   0  0  0  0  0  0  0  0  0  0  0  0
   10.8909    4.2274    0.0000 C   0  0  0  0  0  0  0  0  0  0  0  0
    9.6826    6.3201    0.0000 C   0  0  0  0  0  0  0  0  0  0  0  0
   10.8909    2.8274    0.0000 C   0  0  0  0  0  0  0  0  0  0  0  0
   12.1033    2.1274    0.0000 C   0  0  0  0  0  0  0  0  0  0  0  0
   13.3157    4.2274    0.0000 C   0  0  0  0  0  0  0  0  0  0  0  0
   12.1033    4.9274    0.0000 C   0  0  0  0  0  0  0  0  0  0  0  0
   14.6472    2.3948    0.0000 C   0  0  0  0  0  0  0  0  0  0  0  0
   15.4701    3.5274    0.0000 N   0  0  0  0  0  0  0  0  0  0  0  0
   14.6472    4.6600    0.0000 N   0  0  0  0  0  0  0  0  0  0  0  0
   13.3157    2.8274    0.0000 C   0  0  0  0  0  0  0  0  0  0  0  0
   16.8653    3.5274    0.0000 C   0  0  0  0  0  0  0  0  0  0  0  0
   15.0783    1.0679    0.0000 C   0  0  0  0  0  0  0  0  0  0  0  0
    7.7533    0.0000    0.0000 Cl  0  0  0  0  0  0  0  0  0  0  0  0
  1  2  2  0  0  0  0
  2  3  1  0  0  0  0
  3  4  2  0  0  0  0
  4  5  1  0  0  0  0
  5  6  2  0  0  0  0
  6  1  1  0  0  0  0
  2  7  1  0  0  0  0
  3  8  1  0  0  0  0
  8  9  2  0  0  0  0
  8 10  1  0  0  0  0
  8 11  2  0  0  0  0
  5 12  1  0  0  0  0
 12 13  1  0  0  0  0
 13 14  2  0  0  0  0
 14 15  1  0  0  0  0
 15 16  2  0  0  0  0
 16 17  1  0  0  0  0
 17 18  2  0  0  0  0
 18 13  1  0  0  0  0
 17 19  1  0  0  0  0
 19 20  1  0  0  0  0
 19 21  1  0  0  0  0
 20 22  1  0  0  0  0
 22 23  2  0  0  0  0
 24 25  1  0  0  0  0
 25 20  2  0  0  0  0
 26 27  1  0  0  0  0
 27 28  1  0  0  0  0
 28 24  2  0  0  0  0
 24 29  1  0  0  0  0
 23 29  1  0  0  0  0
 29 26  2  0  0  0  0
 27 30  1  0  0  0  0
 26 31  1  0  0  0  0
M  END
>  <Mol_ID> (17)
22

>  <Formula> (17)
C21H24ClN7O2S

>  <MolWeight> (17)
473.97896

>  <Cat> (17)
S1035

>  <Name> (17)
Pazopanib HCl

>  <Synonyms> (17)
GW786034

>  <Target> (17)
VEGFR, PDGFR, c-Kit

>  <Form> (17)
Hydrochloride

>  <CAS> (17)
635702-64-6

>  <URL> (17)
http://www.selleckchem.com/products/Pazopanib-Hydrochloride.html

$$$$
untitled.cdx
csChFnd80/05071909292D

 26 27  0  0  0  0  0  0  0  0999 V2000
    6.0579    3.5073    0.0000 C   0  0  0  0  0  0  0  0  0  0  0  0
    6.0579    2.1024    0.0000 C   0  0  0  0  0  0  0  0  0  0  0  0
    7.2746    1.4000    0.0000 C   0  0  0  0  0  0  0  0  0  0  0  0
    8.4913    2.1024    0.0000 C   0  0  0  0  0  0  0  0  0  0  0  0
    8.4913    3.5073    0.0000 C   0  0  0  0  0  0  0  0  0  0  0  0
    7.2746    4.2098    0.0000 C   0  0  0  0  0  0  0  0  0  0  0  0
    7.2746    5.6097    0.0000 C   0  0  0  0  0  0  0  0  0  0  0  0
    7.2746    0.0000    0.0000 F   0  0  0  0  0  0  0  0  0  0  0  0
    9.7037    1.4024    0.0000 F   0  0  0  0  0  0  0  0  0  0  0  0
    9.7037    4.2073    0.0000 N   0  0  0  0  0  0  0  0  0  0  0  0
   10.9161    3.5073    0.0000 C   0  0  0  0  0  0  0  0  0  0  0  0
   10.9161    2.1024    0.0000 C   0  0  0  0  0  0  0  0  0  0  0  0
   12.1328    1.4000    0.0000 C   0  0  0  0  0  0  0  0  0  0  0  0
   13.3494    2.1024    0.0000 C   0  0  0  0  0  0  0  0  0  0  0  0
   13.3494    3.5073    0.0000 C   0  0  0  0  0  0  0  0  0  0  0  0
   12.1328    4.2098    0.0000 C   0  0  0  0  0  0  0  0  0  0  0  0
   12.1328    5.6097    0.0000 F   0  0  0  0  0  0  0  0  0  0  0  0
   14.5619    1.4024    0.0000 I   0  0  0  0  0  0  0  0  0  0  0  0
    8.4870    6.3097    0.0000 O   0  0  0  0  0  0  0  0  0  0  0  0
    6.0622    6.3097    0.0000 N   0  0  0  0  0  0  0  0  0  0  0  0
    4.8497    5.6097    0.0000 O   0  0  0  0  0  0  0  0  0  0  0  0
    3.6373    6.3097    0.0000 C   0  0  0  0  0  0  0  0  0  0  0  0
    2.4249    5.6097    0.0000 C   0  0  2  0  0  0  0  0  0  0  0  0
    2.4249    4.2098    0.0000 O   0  0  0  0  0  0  0  0  0  0  0  0
    1.2124    6.3097    0.0000 C   0  0  0  0  0  0  0  0  0  0  0  0
    0.0000    5.6097    0.0000 O   0  0  0  0  0  0  0  0  0  0  0  0
  1  2  2  0  0  0  0
  2  3  1  0  0  0  0
  3  4  2  0  0  0  0
  4  5  1  0  0  0  0
  5  6  2  0  0  0  0
  6  1  1  0  0  0  0
  6  7  1  0  0  0  0
  3  8  1  0  0  0  0
  4  9  1  0  0  0  0
  5 10  1  0  0  0  0
 10 11  1  0  0  0  0
 11 12  2  0  0  0  0
 12 13  1  0  0  0  0
 13 14  2  0  0  0  0
 14 15  1  0  0  0  0
 15 16  2  0  0  0  0
 16 11  1  0  0  0  0
 16 17  1  0  0  0  0
 14 18  1  0  0  0  0
  7 19  2  0  0  0  0
  7 20  1  0  0  0  0
 20 21  1  0  0  0  0
 21 22  1  0  0  0  0
 22 23  1  0  0  0  0
 23 24  1  6  0  0  0
 23 25  1  0  0  0  0
 25 26  1  0  0  0  0
M  END
>  <Mol_ID> (18)
23

>  <Formula> (18)
C16H14F3IN2O4

>  <MolWeight> (18)
482.1930396

>  <Cat> (18)
S1036

>  <Name> (18)
PD0325901

>  <Synonyms> (18)
N/A

>  <Target> (18)
MEK 

>  <Form> (18)
Free Base

>  <CAS> (18)
391210-10-9

>  <URL> (18)
http://www.selleckchem.com/products/PD-0325901.html

$$$$
1.cdx
csChFnd80/05071909292D

 26 30  0  0  0  0  0  0  0  0999 V2000
    4.1161    4.1976    0.0000 C   0  0  0  0  0  0  0  0  0  0  0  0
    4.1161    2.7976    0.0000 C   0  0  0  0  0  0  0  0  0  0  0  0
    5.3286    2.0976    0.0000 N   0  0  0  0  0  0  0  0  0  0  0  0
    6.5410    2.7976    0.0000 C   0  0  0  0  0  0  0  0  0  0  0  0
    6.5410    4.1976    0.0000 N   0  0  0  0  0  0  0  0  0  0  0  0
    5.3286    4.8976    0.0000 C   0  0  0  0  0  0  0  0  0  0  0  0
    5.3286    6.2927    0.0000 N   0  0  0  0  0  0  0  0  0  0  0  0
    2.7847    4.6302    0.0000 O   0  0  0  0  0  0  0  0  0  0  0  0
    1.9618    3.4976    0.0000 C   0  0  0  0  0  0  0  0  0  0  0  0
    2.7847    2.3649    0.0000 C   0  0  0  0  0  0  0  0  0  0  0  0
    0.5694    3.3512    0.0000 N   0  0  0  0  0  0  0  0  0  0  0  0
    0.0000    2.0723    0.0000 C   0  0  0  0  0  0  0  0  0  0  0  0
    0.8229    0.9396    0.0000 C   0  0  0  0  0  0  0  0  0  0  0  0
    2.2152    1.0860    0.0000 C   0  0  0  0  0  0  0  0  0  0  0  0
    7.7492    2.1000    0.0000 C   0  0  0  0  0  0  0  0  0  0  0  0
    7.7492    0.7000    0.0000 C   0  0  0  0  0  0  0  0  0  0  0  0
    8.9617    0.0000    0.0000 C   0  0  0  0  0  0  0  0  0  0  0  0
   10.1741    0.7000    0.0000 C   0  0  0  0  0  0  0  0  0  0  0  0
   10.1741    2.1000    0.0000 C   0  0  0  0  0  0  0  0  0  0  0  0
    8.9617    2.8000    0.0000 C   0  0  0  0  0  0  0  0  0  0  0  0
   11.3823    2.7976    0.0000 O   0  0  0  0  0  0  0  0  0  0  0  0
    6.5410    6.9927    0.0000 C   0  0  0  0  0  0  0  0  0  0  0  0
    6.5410    8.3927    0.0000 C   0  0  0  0  0  0  0  0  0  0  0  0
    5.3286    9.0927    0.0000 O   0  0  0  0  0  0  0  0  0  0  0  0
    4.1161    8.3927    0.0000 C   0  0  0  0  0  0  0  0  0  0  0  0
    4.1161    6.9927    0.0000 C   0  0  0  0  0  0  0  0  0  0  0  0
  1  2  2  0  0  0  0
  2  3  1  0  0  0  0
  3  4  2  0  0  0  0
  4  5  1  0  0  0  0
  5  6  2  0  0  0  0
  6  1  1  0  0  0  0
  6  7  1  0  0  0  0
  1  8  1  0  0  0  0
  8  9  1  0  0  0  0
  9 10  2  0  0  0  0
 10  2  1  0  0  0  0
  9 11  1  0  0  0  0
 11 12  2  0  0  0  0
 12 13  1  0  0  0  0
 13 14  2  0  0  0  0
 14 10  1  0  0  0  0
  4 15  1  0  0  0  0
 15 16  2  0  0  0  0
 16 17  1  0  0  0  0
 17 18  2  0  0  0  0
 18 19  1  0  0  0  0
 19 20  2  0  0  0  0
 20 15  1  0  0  0  0
 19 21  1  0  0  0  0
  7 22  1  0  0  0  0
 22 23  1  0  0  0  0
 23 24  1  0  0  0  0
 24 25  1  0  0  0  0
 25 26  1  0  0  0  0
 26  7  1  0  0  0  0
M  END
>  <Mol_ID> (19)
26

>  <Formula> (19)
C19H16N4O3

>  <MolWeight> (19)
348.35534

>  <Cat> (19)
S1038

>  <Name> (19)
PI-103

>  <Synonyms> (19)
N/A

>  <Target> (19)
DNA-PK, PI3K, mTOR

>  <Form> (19)
Free Base

>  <CAS> (19)
371935-74-9

>  <URL> (19)
http://www.selleckchem.com/products/PI-103.html

$$$$
RAPAMYCIN.cdx
csChFnd80/05071909292D

 65 68  0  0  0  0  0  0  0  0999 V2000
    3.0668   14.6292    0.0000 C   0  0  1  0  0  0  0  0  0  0  0  0
    2.3668   13.4168    0.0000 C   0  0  1  0  0  0  0  0  0  0  0  0
    3.0668   12.2043    0.0000 C   0  0  0  0  0  0  0  0  0  0  0  0
    4.4668   12.2043    0.0000 C   0  0  1  0  0  0  0  0  0  0  0  0
    5.1668   13.4168    0.0000 C   0  0  0  0  0  0  0  0  0  0  0  0
    4.4668   14.6292    0.0000 C   0  0  0  0  0  0  0  0  0  0  0  0
    2.3693   15.8374    0.0000 O   0  0  0  0  0  0  0  0  0  0  0  0
    0.9717   13.4168    0.0000 O   0  0  0  0  0  0  0  0  0  0  0  0
    0.2741   14.6250    0.0000 C   0  0  0  0  0  0  0  0  0  0  0  0
    5.1644   10.9961    0.0000 C   0  0  0  0  0  0  0  0  0  0  0  0
    6.5644   10.9961    0.0000 C   0  0  2  0  0  0  0  0  0  0  0  0
    7.2620    9.7879    0.0000 C   0  0  2  0  0  0  0  0  0  0  0  0
    7.2620   12.2043    0.0000 C   0  0  0  0  0  0  0  0  0  0  0  0
    8.4744   10.4879    0.0000 C   0  0  0  0  0  0  0  0  0  0  0  0
    9.6869    9.7879    0.0000 C   0  0  0  0  0  0  0  0  0  0  0  0
   10.8951   10.4854    0.0000 C   0  0  1  0  0  0  0  0  0  0  0  0
    7.2620    8.3879    0.0000 O   0  0  0  0  0  0  0  0  0  0  0  0
    9.6869    8.3879    0.0000 O   0  0  0  0  0  0  0  0  0  0  0  0
   12.1075    9.7854    0.0000 C   0  0  0  0  0  0  0  0  0  0  0  0
   10.8951   11.8806    0.0000 C   0  0  0  0  0  0  0  0  0  0  0  0
   12.1075    8.3854    0.0000 C   0  0  0  0  0  0  0  0  0  0  0  0
   10.8951    7.6854    0.0000 C   0  0  0  0  0  0  0  0  0  0  0  0
   13.3158    7.6879    0.0000 C   0  0  2  0  0  0  0  0  0  0  0  0
    6.0538    7.6903    0.0000 C   0  0  0  0  0  0  0  0  0  0  0  0
    4.8455    8.3879    0.0000 C   0  0  2  0  0  0  0  0  0  0  0  0
    6.0538    6.2951    0.0000 O   0  0  0  0  0  0  0  0  0  0  0  0
    4.8455    9.7879    0.0000 C   0  0  0  0  0  0  0  0  0  0  0  0
    3.6331   10.4879    0.0000 C   0  0  0  0  0  0  0  0  0  0  0  0
    2.4207    9.7879    0.0000 C   0  0  0  0  0  0  0  0  0  0  0  0
    2.4207    8.3879    0.0000 C   0  0  0  0  0  0  0  0  0  0  0  0
    3.6331    7.6879    0.0000 N   0  0  0  0  0  0  0  0  0  0  0  0
    3.6331    6.2927    0.0000 C   0  0  0  0  0  0  0  0  0  0  0  0
    2.4207    5.5927    0.0000 C   0  0  0  0  0  0  0  0  0  0  0  0
    4.8413    5.5951    0.0000 O   0  0  0  0  0  0  0  0  0  0  0  0
    2.4207    4.1927    0.0000 C   0  0  1  0  0  0  0  0  0  0  0  0
    1.2124    6.2903    0.0000 O   0  0  0  0  0  0  0  0  0  0  0  0
    1.2082    3.4927    0.0000 C   0  0  1  0  0  0  0  0  0  0  0  0
    1.2082    2.0927    0.0000 C   0  0  0  0  0  0  0  0  0  0  0  0
    2.4207    1.3927    0.0000 C   0  0  0  0  0  0  0  0  0  0  0  0
    3.6331    2.0927    0.0000 C   0  0  2  0  0  0  0  0  0  0  0  0
    3.6331    3.4927    0.0000 O   0  0  0  0  0  0  0  0  0  0  0  0
    1.2082    4.8927    0.0000 O   0  0  0  0  0  0  0  0  0  0  0  0
    0.0000    4.1903    0.0000 C   0  0  0  0  0  0  0  0  0  0  0  0
    4.8413    1.3951    0.0000 C   0  0  0  0  0  0  0  0  0  0  0  0
    6.0496    2.0927    0.0000 C   0  0  1  0  0  0  0  0  0  0  0  0
    7.2578    1.3951    0.0000 C   0  0  0  0  0  0  0  0  0  0  0  0
    8.4660    2.0927    0.0000 C   0  0  0  0  0  0  0  0  0  0  0  0
    9.6742    1.3951    0.0000 C   0  0  0  0  0  0  0  0  0  0  0  0
    7.2578    0.0000    0.0000 C   0  0  0  0  0  0  0  0  0  0  0  0
   10.8825    2.0927    0.0000 C   0  0  0  0  0  0  0  0  0  0  0  0
   12.0907    1.3951    0.0000 C   0  0  0  0  0  0  0  0  0  0  0  0
   13.2989    2.0927    0.0000 C   0  0  0  0  0  0  0  0  0  0  0  0
   14.6512    1.7304    0.0000 C   0  0  2  0  0  0  0  0  0  0  0  0
   15.4137    2.9045    0.0000 C   0  0  0  0  0  0  0  0  0  0  0  0
   14.5327    3.9925    0.0000 C   0  0  1  0  0  0  0  0  0  0  0  0
   13.2256    3.4908    0.0000 C   0  0  0  0  0  0  0  0  0  0  0  0
   14.5327    5.3925    0.0000 C   0  0  0  0  0  0  0  0  0  0  0  0
   13.3244    6.0901    0.0000 C   0  0  2  0  0  0  0  0  0  0  0  0
   14.5221    8.3887    0.0000 O   0  0  0  0  0  0  0  0  0  0  0  0
   12.1181    5.3892    0.0000 O   0  0  0  0  0  0  0  0  0  0  0  0
   10.9080    6.0835    0.0000 C   0  0  0  0  0  0  0  0  0  0  0  0
   15.7409    6.0901    0.0000 O   0  0  0  0  0  0  0  0  0  0  0  0
   15.1512    0.4279    0.0000 C   0  0  0  0  0  0  0  0  0  0  0  0
    6.0496    3.4879    0.0000 O   0  0  0  0  0  0  0  0  0  0  0  0
    7.2620    4.1879    0.0000 C   0  0  0  0  0  0  0  0  0  0  0  0
  1  2  1  0  0  0  0
  2  3  1  0  0  0  0
  3  4  1  0  0  0  0
  4  5  1  0  0  0  0
  5  6  1  0  0  0  0
  6  1  1  0  0  0  0
  1  7  1  6  0  0  0
  2  8  1  1  0  0  0
  8  9  1  0  0  0  0
  4 10  1  1  0  0  0
 10 11  1  0  0  0  0
 11 12  1  0  0  0  0
 11 13  1  1  0  0  0
 12 14  1  0  0  0  0
 14 15  1  0  0  0  0
 15 16  1  0  0  0  0
 12 17  1  6  0  0  0
 15 18  2  0  0  0  0
 16 19  1  0  0  0  0
 16 20  1  6  0  0  0
 19 21  2  0  0  0  0
 21 22  1  0  0  0  0
 21 23  1  0  0  0  0
 17 24  1  0  0  0  0
 25 24  1  1  0  0  0
 24 26  2  0  0  0  0
 25 27  1  0  0  0  0
 27 28  1  0  0  0  0
 28 29  1  0  0  0  0
 29 30  1  0  0  0  0
 30 31  1  0  0  0  0
 31 25  1  0  0  0  0
 31 32  1  0  0  0  0
 32 33  1  0  0  0  0
 32 34  2  0  0  0  0
 33 35  1  0  0  0  0
 33 36  2  0  0  0  0
 35 37  1  0  0  0  0
 37 38  1  0  0  0  0
 38 39  1  0  0  0  0
 39 40  1  0  0  0  0
 40 41  1  0  0  0  0
 41 35  1  0  0  0  0
 35 42  1  1  0  0  0
 37 43  1  1  0  0  0
 40 44  1  6  0  0  0
 44 45  1  0  0  0  0
 45 46  1  0  0  0  0
 46 47  2  0  0  0  0
 47 48  1  0  0  0  0
 46 49  1  0  0  0  0
 48 50  2  0  0  0  0
 50 51  1  0  0  0  0
 51 52  2  0  0  0  0
 52 53  1  0  0  0  0
 53 54  1  0  0  0  0
 54 55  1  0  0  0  0
 55 56  1  1  0  0  0
 55 57  1  0  0  0  0
 57 58  1  0  0  0  0
 23 58  1  0  0  0  0
 23 59  1  1  0  0  0
 58 60  1  6  0  0  0
 60 61  1  0  0  0  0
 57 62  2  0  0  0  0
 53 63  1  6  0  0  0
 45 64  1  6  0  0  0
 64 65  1  0  0  0  0
M  END
>  <Mol_ID> (20)
27

>  <Formula> (20)
C51H79NO13

>  <MolWeight> (20)
914.17186

>  <Cat> (20)
S1039

>  <Name> (20)
Rapamycin (Sirolimus)

>  <Synonyms> (20)
N/A 

>  <Target> (20)
mTOR 

>  <Form> (20)
Free Base

>  <CAS> (20)
53123-88-9

>  <URL> (20)
http://www.selleckchem.com/products/Rapamycin.html

$$$$

csChFnd80/05071909292D

 43 45  0  0  0  0  0  0  0  0999 V2000
    4.0081   -6.2951    0.0000 C   0  0  0  0  0  0  0  0  0  0  0  0
    4.0081   -7.6951    0.0000 C   0  0  0  0  0  0  0  0  0  0  0  0
    5.2206   -8.3951    0.0000 C   0  0  0  0  0  0  0  0  0  0  0  0
    6.4330   -7.6951    0.0000 C   0  0  0  0  0  0  0  0  0  0  0  0
    6.4330   -6.2951    0.0000 C   0  0  0  0  0  0  0  0  0  0  0  0
    5.2206   -5.5951    0.0000 C   0  0  0  0  0  0  0  0  0  0  0  0
    2.7999   -5.5975    0.0000 Cl  0  0  0  0  0  0  0  0  0  0  0  0
    5.2206   -4.1999    0.0000 C   0  0  0  0  0  0  0  0  0  0  0  0
    3.8206   -4.1999    0.0000 F   0  0  0  0  0  0  0  0  0  0  0  0
    5.2206   -2.7999    0.0000 F   0  0  0  0  0  0  0  0  0  0  0  0
    6.6206   -4.1999    0.0000 F   0  0  0  0  0  0  0  0  0  0  0  0
    7.6412   -8.3927    0.0000 N   0  0  0  0  0  0  0  0  0  0  0  0
    8.8495   -7.6951    0.0000 C   0  0  0  0  0  0  0  0  0  0  0  0
   10.0577   -8.3927    0.0000 N   0  0  0  0  0  0  0  0  0  0  0  0
    8.8495   -6.2999    0.0000 O   0  0  0  0  0  0  0  0  0  0  0  0
   11.2659   -7.6951    0.0000 C   0  0  0  0  0  0  0  0  0  0  0  0
   12.4783   -8.3951    0.0000 C   0  0  0  0  0  0  0  0  0  0  0  0
   13.6908   -7.6951    0.0000 C   0  0  0  0  0  0  0  0  0  0  0  0
   13.6908   -6.2951    0.0000 C   0  0  0  0  0  0  0  0  0  0  0  0
   12.4783   -5.5951    0.0000 C   0  0  0  0  0  0  0  0  0  0  0  0
   11.2659   -6.2951    0.0000 C   0  0  0  0  0  0  0  0  0  0  0  0
   14.8990   -5.5975    0.0000 O   0  0  0  0  0  0  0  0  0  0  0  0
   16.1072   -6.2951    0.0000 C   0  0  0  0  0  0  0  0  0  0  0  0
   16.1072   -7.6951    0.0000 C   0  0  0  0  0  0  0  0  0  0  0  0
   17.3197   -8.3951    0.0000 C   0  0  0  0  0  0  0  0  0  0  0  0
   18.5321   -7.6951    0.0000 N   0  0  0  0  0  0  0  0  0  0  0  0
   18.5321   -6.2951    0.0000 C   0  0  0  0  0  0  0  0  0  0  0  0
   17.3197   -5.5951    0.0000 C   0  0  0  0  0  0  0  0  0  0  0  0
   19.7403   -5.5975    0.0000 C   0  0  0  0  0  0  0  0  0  0  0  0
   20.9486   -6.2951    0.0000 N   0  0  0  0  0  0  0  0  0  0  0  0
   19.7403   -4.2024    0.0000 O   0  0  0  0  0  0  0  0  0  0  0  0
   22.1568   -5.5975    0.0000 C   0  0  0  0  0  0  0  0  0  0  0  0
   12.1112  -13.9951    0.0000 C   0  0  0  0  0  0  0  0  0  0  0  0
   13.3236  -13.2951    0.0000 C   0  0  0  0  0  0  0  0  0  0  0  0
   13.3236  -11.8951    0.0000 C   0  0  0  0  0  0  0  0  0  0  0  0
   12.1112  -11.1951    0.0000 C   0  0  0  0  0  0  0  0  0  0  0  0
   10.8988  -11.8951    0.0000 C   0  0  0  0  0  0  0  0  0  0  0  0
   10.8988  -13.2951    0.0000 C   0  0  0  0  0  0  0  0  0  0  0  0
   14.5319  -11.1975    0.0000 C   0  0  0  0  0  0  0  0  0  0  0  0
    9.6905  -13.9927    0.0000 S   0  0  0  0  0  0  0  0  0  0  0  0
    8.4781  -14.6927    0.0000 O   0  0  0  0  0  0  0  0  0  0  0  0
    8.9930  -12.7844    0.0000 O   0  0  0  0  0  0  0  0  0  0  0  0
   10.3905  -15.2051    0.0000 O   0  0  0  0  0  0  0  0  0  0  0  0
  1  2  2  0  0  0  0
  2  3  1  0  0  0  0
  3  4  2  0  0  0  0
  4  5  1  0  0  0  0
  5  6  2  0  0  0  0
  6  1  1  0  0  0  0
  1  7  1  0  0  0  0
  6  8  1  0  0  0  0
  4 12  1  0  0  0  0
 12 13  1  0  0  0  0
 13 14  1  0  0  0  0
 13 15  2  0  0  0  0
 14 16  1  0  0  0  0
 16 17  2  0  0  0  0
 17 18  1  0  0  0  0
 18 19  2  0  0  0  0
 19 20  1  0  0  0  0
 20 21  2  0  0  0  0
 21 16  1  0  0  0  0
 19 22  1  0  0  0  0
 22 23  1  0  0  0  0
 23 24  2  0  0  0  0
 24 25  1  0  0  0  0
 25 26  2  0  0  0  0
 26 27  1  0  0  0  0
 27 28  2  0  0  0  0
 28 23  1  0  0  0  0
 27 29  1  0  0  0  0
 29 30  1  0  0  0  0
 29 31  2  0  0  0  0
 30 32  1  0  0  0  0
  8  9  1  0  0  0  0
  8 10  1  0  0  0  0
  8 11  1  0  0  0  0
 33 34  2  0  0  0  0
 34 35  1  0  0  0  0
 35 36  2  0  0  0  0
 36 37  1  0  0  0  0
 37 38  2  0  0  0  0
 38 33  1  0  0  0  0
 35 39  1  0  0  0  0
 38 40  1  0  0  0  0
 40 41  1  0  0  0  0
 40 42  2  0  0  0  0
 40 43  2  0  0  0  0
M  END
>  <Mol_ID> (21)
28

>  <Formula> (21)
C28H24ClF3N4O6S

>  <MolWeight> (21)
637.0265696

>  <Cat> (21)
S1040

>  <Name> (21)
Sorafenib Tosylate

>  <Synonyms> (21)
Bay 43-9006 

>  <Target> (21)
VEGFR, PDGFR, Raf

>  <Form> (21)
Tosylate

>  <CAS> (21)
475207-59-1

>  <URL> (21)
http://www.selleckchem.com/products/Sorafenib-Tosylate.html

$$$$

csChFnd80/05071909292D

 38 39  0  0  0  0  0  0  0  0999 V2000
    4.0124   -8.5659    0.0000 C   0  0  0  0  0  0  0  0  0  0  0  0
    4.0124   -9.9708    0.0000 C   0  0  0  0  0  0  0  0  0  0  0  0
    5.2291  -10.6733    0.0000 C   0  0  0  0  0  0  0  0  0  0  0  0
    6.4458   -9.9708    0.0000 C   0  0  0  0  0  0  0  0  0  0  0  0
    6.4458   -8.5659    0.0000 C   0  0  0  0  0  0  0  0  0  0  0  0
    5.2291   -7.8635    0.0000 C   0  0  0  0  0  0  0  0  0  0  0  0
    2.8000   -7.8659    0.0000 F   0  0  0  0  0  0  0  0  0  0  0  0
    7.7819  -10.4050    0.0000 N   0  0  0  0  0  0  0  0  0  0  0  0
    8.6076   -9.2684    0.0000 C   0  0  0  0  0  0  0  0  0  0  0  0
    7.7819   -8.1318    0.0000 C   0  0  0  0  0  0  0  0  0  0  0  0
   10.0076   -9.2684    0.0000 O   0  0  0  0  0  0  0  0  0  0  0  0
    8.2145   -6.8003    0.0000 C   0  0  0  0  0  0  0  0  0  0  0  0
    9.5839   -6.5093    0.0000 C   0  0  0  0  0  0  0  0  0  0  0  0
   10.6279   -7.4493    0.0000 N   0  0  0  0  0  0  0  0  0  0  0  0
   11.8446   -6.7469    0.0000 C   0  0  0  0  0  0  0  0  0  0  0  0
   11.5525   -5.3727    0.0000 C   0  0  0  0  0  0  0  0  0  0  0  0
   10.1553   -5.2258    0.0000 C   0  0  0  0  0  0  0  0  0  0  0  0
    9.4553   -4.0134    0.0000 C   0  0  0  0  0  0  0  0  0  0  0  0
   12.4893   -4.3323    0.0000 C   0  0  0  0  0  0  0  0  0  0  0  0
   13.8587   -4.6234    0.0000 N   0  0  0  0  0  0  0  0  0  0  0  0
   12.0567   -3.0008    0.0000 O   0  0  0  0  0  0  0  0  0  0  0  0
   14.2913   -5.9548    0.0000 C   0  0  0  0  0  0  0  0  0  0  0  0
   15.6641   -6.2294    0.0000 C   0  0  0  0  0  0  0  0  0  0  0  0
   13.1235   -7.3163    0.0000 C   0  0  0  0  0  0  0  0  0  0  0  0
   16.5883   -5.1778    0.0000 N   0  0  0  0  0  0  0  0  0  0  0  0
   16.1397   -3.8516    0.0000 C   0  0  0  0  0  0  0  0  0  0  0  0
   17.9611   -5.4524    0.0000 C   0  0  0  0  0  0  0  0  0  0  0  0
   17.0639   -2.8000    0.0000 C   0  0  0  0  0  0  0  0  0  0  0  0
   18.8853   -4.4008    0.0000 C   0  0  0  0  0  0  0  0  0  0  0  0
   17.9974  -11.9757    0.0000 C   0  0  0  0  0  0  0  0  0  0  0  0
   19.2140  -11.2733    0.0000 C   0  0  0  0  0  0  0  0  0  0  0  0
   16.7849  -11.2757    0.0000 O   0  0  0  0  0  0  0  0  0  0  0  0
   17.9974  -13.3757    0.0000 O   0  0  0  0  0  0  0  0  0  0  0  0
   20.4265  -11.9733    0.0000 C   0  0  1  0  0  0  0  0  0  0  0  0
   21.6389  -11.2733    0.0000 C   0  0  0  0  0  0  0  0  0  0  0  0
   22.8513  -11.9733    0.0000 O   0  0  0  0  0  0  0  0  0  0  0  0
   21.6389   -9.8733    0.0000 O   0  0  0  0  0  0  0  0  0  0  0  0
   20.4265  -13.3733    0.0000 O   0  0  0  0  0  0  0  0  0  0  0  0
  1  2  2  0  0  0  0
  2  3  1  0  0  0  0
  3  4  2  0  0  0  0
  4  5  1  0  0  0  0
  5  6  2  0  0  0  0
  6  1  1  0  0  0  0
  1  7  1  0  0  0  0
  4  8  1  0  0  0  0
  8  9  1  0  0  0  0
  9 10  1  0  0  0  0
 10  5  1  0  0  0  0
  9 11  2  0  0  0  0
 10 12  2  0  0  0  0
 12 13  1  0  0  0  0
 13 14  1  0  0  0  0
 14 15  1  0  0  0  0
 15 16  2  0  0  0  0
 16 17  1  0  0  0  0
 17 13  2  0  0  0  0
 17 18  1  0  0  0  0
 16 19  1  0  0  0  0
 19 20  1  0  0  0  0
 19 21  2  0  0  0  0
 20 22  1  0  0  0  0
 22 23  1  0  0  0  0
 15 24  1  0  0  0  0
 23 25  1  0  0  0  0
 25 26  1  0  0  0  0
 25 27  1  0  0  0  0
 26 28  1  0  0  0  0
 27 29  1  0  0  0  0
 30 31  1  0  0  0  0
 30 32  1  0  0  0  0
 30 33  2  0  0  0  0
 31 34  1  0  0  0  0
 34 35  1  0  0  0  0
 35 36  1  0  0  0  0
 35 37  2  0  0  0  0
 34 38  1  1  0  0  0
M  END
>  <Mol_ID> (22)
30

>  <Formula> (22)
C26H33FN4O7

>  <MolWeight> (22)
532.5612232

>  <Cat> (22)
S1042

>  <Name> (22)
Sunitinib Malate

>  <Synonyms> (22)
N/A

>  <Target> (22)
VEGFR, PDGFR, c-Kit, Flt

>  <Form> (22)
Malate

>  <CAS> (22)
341031-54-7

>  <URL> (22)
http://www.selleckchem.com/products/Sunitinib-Malate-(Sutent).html

$$$$
untitled.cdx
csChFnd80/05071909292D

 33 37  0  0  0  0  0  0  0  0999 V2000
    5.9377    7.7000    0.0000 C   0  0  0  0  0  0  0  0  0  0  0  0
    5.9377    6.3000    0.0000 C   0  0  0  0  0  0  0  0  0  0  0  0
    7.1502    5.6000    0.0000 C   0  0  0  0  0  0  0  0  0  0  0  0
    8.3626    6.3000    0.0000 N   0  0  0  0  0  0  0  0  0  0  0  0
    8.3626    7.7000    0.0000 C   0  0  0  0  0  0  0  0  0  0  0  0
    7.1502    8.4000    0.0000 N   0  0  0  0  0  0  0  0  0  0  0  0
    4.7253    8.4000    0.0000 N   0  0  0  0  0  0  0  0  0  0  0  0
    9.5750    8.4000    0.0000 S   0  0  0  0  0  0  0  0  0  0  0  0
    7.1502    4.2000    0.0000 N   0  0  0  0  0  0  0  0  0  0  0  0
   10.7875    7.7000    0.0000 C   0  0  0  0  0  0  0  0  0  0  0  0
   10.7875    6.3000    0.0000 C   0  0  0  0  0  0  0  0  0  0  0  0
   11.9999    5.6000    0.0000 C   0  0  0  0  0  0  0  0  0  0  0  0
   13.2124    6.3000    0.0000 C   0  0  0  0  0  0  0  0  0  0  0  0
   13.2124    7.7000    0.0000 C   0  0  0  0  0  0  0  0  0  0  0  0
   11.9999    8.4000    0.0000 C   0  0  0  0  0  0  0  0  0  0  0  0
    5.9377    3.5000    0.0000 C   0  0  0  0  0  0  0  0  0  0  0  0
    5.9377    2.1000    0.0000 C   0  0  0  0  0  0  0  0  0  0  0  0
    7.1502    1.4000    0.0000 N   0  0  0  0  0  0  0  0  0  0  0  0
    8.3626    2.1000    0.0000 C   0  0  0  0  0  0  0  0  0  0  0  0
    8.3626    3.5000    0.0000 C   0  0  0  0  0  0  0  0  0  0  0  0
    3.5129    7.7000    0.0000 C   0  0  0  0  0  0  0  0  0  0  0  0
    2.1606    8.0623    0.0000 C   0  0  0  0  0  0  0  0  0  0  0  0
    1.3981    6.8882    0.0000 C   0  0  0  0  0  0  0  0  0  0  0  0
    2.2791    5.8002    0.0000 N   0  0  0  0  0  0  0  0  0  0  0  0
    3.5861    6.3019    0.0000 N   0  0  0  0  0  0  0  0  0  0  0  0
    7.1502    0.0000    0.0000 C   0  0  0  0  0  0  0  0  0  0  0  0
   14.4248    5.6000    0.0000 N   0  0  0  0  0  0  0  0  0  0  0  0
   14.4248    4.2000    0.0000 C   0  0  0  0  0  0  0  0  0  0  0  0
   13.2124    3.5000    0.0000 O   0  0  0  0  0  0  0  0  0  0  0  0
   15.6372    3.5000    0.0000 C   0  0  0  0  0  0  0  0  0  0  0  0
   16.6272    2.5101    0.0000 C   0  0  0  0  0  0  0  0  0  0  0  0
   16.9895    3.8623    0.0000 C   0  0  0  0  0  0  0  0  0  0  0  0
    0.0000    6.8149    0.0000 C   0  0  0  0  0  0  0  0  0  0  0  0
  1  2  2  0  0  0  0
  2  3  1  0  0  0  0
  3  4  2  0  0  0  0
  4  5  1  0  0  0  0
  5  6  2  0  0  0  0
  6  1  1  0  0  0  0
  1  7  1  0  0  0  0
  5  8  1  0  0  0  0
  3  9  1  0  0  0  0
  8 10  1  0  0  0  0
 10 11  2  0  0  0  0
 11 12  1  0  0  0  0
 12 13  2  0  0  0  0
 13 14  1  0  0  0  0
 14 15  2  0  0  0  0
 15 10  1  0  0  0  0
  9 16  1  0  0  0  0
 16 17  1  0  0  0  0
 17 18  1  0  0  0  0
 18 19  1  0  0  0  0
 19 20  1  0  0  0  0
 20  9  1  0  0  0  0
  7 21  1  0  0  0  0
 21 22  1  0  0  0  0
 22 23  2  0  0  0  0
 23 24  1  0  0  0  0
 24 25  1  0  0  0  0
 25 21  2  0  0  0  0
 18 26  1  0  0  0  0
 13 27  1  0  0  0  0
 27 28  1  0  0  0  0
 28 29  2  0  0  0  0
 28 30  1  0  0  0  0
 30 31  1  0  0  0  0
 31 32  1  0  0  0  0
 32 30  1  0  0  0  0
 23 33  1  0  0  0  0
M  END
>  <Mol_ID> (23)
32

>  <Formula> (23)
C23H28N8OS

>  <MolWeight> (23)
464.58642

>  <Cat> (23)
S1048

>  <Name> (23)
VX-680 (MK-0457, Tozasertib)

>  <Synonyms> (23)
N/A 

>  <Target> (23)
Aurora Kinase

>  <Form> (23)
Free Base

>  <CAS> (23)
639089-54-6

>  <URL> (23)
http://www.selleckchem.com/products/VX-680(MK-0457).html

$$$$
Y-27632 2HCL.cdx
csChFnd80/05071909292D

 20 19  0  0  0  0  0  0  0  0999 V2000
   10.0971    1.2124    0.0000 C   0  0  1  0  0  0  0  0  0  0  0  0
    9.3971    0.0000    0.0000 C   0  0  0  0  0  0  0  0  0  0  0  0
    7.9971    0.0000    0.0000 C   0  0  0  0  0  0  0  0  0  0  0  0
    7.2971    1.2124    0.0000 C   0  0  1  0  0  0  0  0  0  0  0  0
    7.9971    2.4249    0.0000 C   0  0  0  0  0  0  0  0  0  0  0  0
    9.3971    2.4249    0.0000 C   0  0  0  0  0  0  0  0  0  0  0  0
   11.4971    1.2124    0.0000 C   0  0  0  0  0  0  0  0  0  0  0  0
   12.1971    0.0000    0.0000 O   0  0  0  0  0  0  0  0  0  0  0  0
   12.1971    2.4249    0.0000 N   0  0  0  0  0  0  0  0  0  0  0  0
   15.6971    1.2124    0.0000 C   0  0  0  0  0  0  0  0  0  0  0  0
   14.2971    1.2124    0.0000 C   0  0  0  0  0  0  0  0  0  0  0  0
   13.5971    2.4249    0.0000 C   0  0  0  0  0  0  0  0  0  0  0  0
   14.2971    3.6373    0.0000 C   0  0  0  0  0  0  0  0  0  0  0  0
   15.6971    3.6373    0.0000 C   0  0  0  0  0  0  0  0  0  0  0  0
   16.3971    2.4249    0.0000 N   0  0  0  0  0  0  0  0  0  0  0  0
    5.8971    1.2124    0.0000 C   0  0  1  0  0  0  0  0  0  0  0  0
    5.1971    0.0000    0.0000 C   0  0  0  0  0  0  0  0  0  0  0  0
    5.1971    2.4249    0.0000 N   0  0  0  0  0  0  0  0  0  0  0  0
    9.0246    1.8187    0.0000 Cl  0  0  0  0  0  0  0  0  0  0  0  0
    7.6246    1.8187    0.0000 Cl  0  0  0  0  0  0  0  0  0  0  0  0
  1  2  1  0  0  0  0
  2  3  1  0  0  0  0
  4  3  1  6  0  0  0
  4  5  1  0  0  0  0
  5  6  1  0  0  0  0
  1  6  1  0  0  0  0
  7  8  2  0  0  0  0
  7  9  1  0  0  0  0
  1  7  1  1  0  0  0
 10 11  2  0  0  0  0
 11 12  1  0  0  0  0
 12 13  2  0  0  0  0
 13 14  1  0  0  0  0
 14 15  2  0  0  0  0
 10 15  1  0  0  0  0
  9 12  1  0  0  0  0
 16 17  1  0  0  0  0
 16 18  1  1  0  0  0
  4 16  1  0  0  0  0
M  END
>  <Mol_ID> (24)
33

>  <Formula> (24)
C14H23Cl2N3O

>  <MolWeight> (24)
320.25792

>  <Cat> (24)
S1049

>  <Name> (24)
Y-27632 2HCl

>  <Synonyms> (24)
N/A

>  <Target> (24)
ROCK

>  <Form> (24)
Dihydrochloride

>  <CAS> (24)
129830-38-2

>  <URL> (24)
http://www.selleckchem.com/products/Y-27632.html

$$$$
untitled.cdx
csChFnd80/05071909292D

 39 45  0  0  0  0  0  0  0  0999 V2000
    1.3136    9.0619    0.0000 C   0  0  0  0  0  0  0  0  0  0  0  0
    1.3136    7.6619    0.0000 C   0  0  0  0  0  0  0  0  0  0  0  0
    2.5261    6.9619    0.0000 C   0  0  0  0  0  0  0  0  0  0  0  0
    3.7385    7.6619    0.0000 C   0  0  0  0  0  0  0  0  0  0  0  0
    3.7385    9.0619    0.0000 C   0  0  0  0  0  0  0  0  0  0  0  0
    2.5261    9.7619    0.0000 C   0  0  0  0  0  0  0  0  0  0  0  0
    5.0700    7.2293    0.0000 N   0  0  0  0  0  0  0  0  0  0  0  0
    5.8929    8.3619    0.0000 C   0  0  0  0  0  0  0  0  0  0  0  0
    5.0700    9.4945    0.0000 C   0  0  0  0  0  0  0  0  0  0  0  0
    5.5011   10.8214    0.0000 C   0  0  0  0  0  0  0  0  0  0  0  0
    6.8326   11.2540    0.0000 C   0  0  0  0  0  0  0  0  0  0  0  0
    6.8326   12.6540    0.0000 N   0  0  0  0  0  0  0  0  0  0  0  0
    5.5011   13.0866    0.0000 C   0  0  0  0  0  0  0  0  0  0  0  0
    4.6782   11.9540    0.0000 C   0  0  0  0  0  0  0  0  0  0  0  0
    3.2831   11.9540    0.0000 C   0  0  0  0  0  0  0  0  0  0  0  0
    2.4602   13.0866    0.0000 C   0  0  0  0  0  0  0  0  0  0  0  0
    1.1287   12.6540    0.0000 C   0  0  0  0  0  0  0  0  0  0  0  0
    1.1287   11.2540    0.0000 N   0  0  0  0  0  0  0  0  0  0  0  0
    2.4602   10.8214    0.0000 C   0  0  0  0  0  0  0  0  0  0  0  0
    2.4602   14.4866    0.0000 C   0  0  0  0  0  0  0  0  0  0  0  0
    1.2477   15.1866    0.0000 C   0  0  0  0  0  0  0  0  0  0  0  0
    0.0353   14.4866    0.0000 C   0  0  0  0  0  0  0  0  0  0  0  0
    0.0353   13.0866    0.0000 C   0  0  0  0  0  0  0  0  0  0  0  0
    5.0700   14.4135    0.0000 O   0  0  0  0  0  0  0  0  0  0  0  0
    7.9613   10.4340    0.0000 O   0  0  0  0  0  0  0  0  0  0  0  0
    0.0000   10.4340    0.0000 C   0  0  0  0  0  0  0  0  0  0  0  0
    5.5011    5.9024    0.0000 C   0  0  0  0  0  0  0  0  0  0  0  0
    4.5643    4.8620    0.0000 C   0  0  0  0  0  0  0  0  0  0  0  0
    4.9970    3.5306    0.0000 C   0  0  0  0  0  0  0  0  0  0  0  0
    6.3664    3.2395    0.0000 N   0  0  0  0  0  0  0  0  0  0  0  0
    7.3031    4.2799    0.0000 C   0  0  0  0  0  0  0  0  0  0  0  0
    6.8705    5.6114    0.0000 C   0  0  0  0  0  0  0  0  0  0  0  0
    6.7975    1.9126    0.0000 C   0  0  0  0  0  0  0  0  0  0  0  0
    8.1621    1.6226    0.0000 C   0  0  0  0  0  0  0  0  0  0  0  0
    8.5948    0.2911    0.0000 N   0  0  0  0  0  0  0  0  0  0  0  0
    9.9642    0.0000    0.0000 C   0  0  0  0  0  0  0  0  0  0  0  0
   10.9009    1.0404    0.0000 C   0  0  0  0  0  0  0  0  0  0  0  0
   10.4683    2.3719    0.0000 C   0  0  0  0  0  0  0  0  0  0  0  0
    9.0989    2.6630    0.0000 C   0  0  0  0  0  0  0  0  0  0  0  0
  1  2  2  0  0  0  0
  2  3  1  0  0  0  0
  3  4  2  0  0  0  0
  4  5  1  0  0  0  0
  5  6  2  0  0  0  0
  6  1  1  0  0  0  0
  4  7  1  0  0  0  0
  7  8  1  0  0  0  0
  8  9  2  0  0  0  0
  9  5  1  0  0  0  0
  9 10  1  0  0  0  0
 10 11  1  0  0  0  0
 11 12  1  0  0  0  0
 12 13  1  0  0  0  0
 13 14  1  0  0  0  0
 14 10  2  0  0  0  0
 14 15  1  0  0  0  0
 15 16  1  0  0  0  0
 16 17  1  0  0  0  0
 17 18  1  0  0  0  0
 18 19  1  0  0  0  0
 19 15  2  0  0  0  0
 16 20  2  0  0  0  0
 20 21  1  0  0  0  0
 21 22  2  0  0  0  0
 22 23  1  0  0  0  0
 23 17  2  0  0  0  0
 13 24  2  0  0  0  0
 11 25  2  0  0  0  0
 18 26  1  0  0  0  0
  7 27  1  0  0  0  0
 27 28  1  0  0  0  0
 28 29  1  0  0  0  0
 29 30  1  0  0  0  0
 30 31  1  0  0  0  0
 31 32  1  0  0  0  0
 32 27  1  0  0  0  0
 30 33  1  0  0  0  0
 33 34  1  0  0  0  0
 34 35  2  0  0  0  0
 35 36  1  0  0  0  0
 36 37  2  0  0  0  0
 37 38  1  0  0  0  0
 38 39  2  0  0  0  0
 39 34  1  0  0  0  0
M  END
>  <Mol_ID> (25)
36

>  <Formula> (25)
C32H29N5O2

>  <MolWeight> (25)
515.60496

>  <Cat> (25)
S1055

>  <Name> (25)
Enzastaurin (LY317615)

>  <Synonyms> (25)
N/A 

>  <Target> (25)
PKC 

>  <Form> (25)
Free Base

>  <CAS> (25)
170364-57-5

>  <URL> (25)
http://www.selleckchem.com/products/Enzastaurin.html

$$$$
untitled.cdx
csChFnd80/05071909292D

 36 40  0  0  0  0  0  0  0  0999 V2000
    6.4614    4.1976    0.0000 C   0  0  0  0  0  0  0  0  0  0  0  0
    6.4614    2.7976    0.0000 C   0  0  0  0  0  0  0  0  0  0  0  0
    7.6739    2.0976    0.0000 C   0  0  0  0  0  0  0  0  0  0  0  0
    8.8863    2.7976    0.0000 C   0  0  0  0  0  0  0  0  0  0  0  0
    8.8863    4.1976    0.0000 C   0  0  0  0  0  0  0  0  0  0  0  0
    7.6739    4.8976    0.0000 C   0  0  0  0  0  0  0  0  0  0  0  0
    5.2532    4.8951    0.0000 C   0  0  0  0  0  0  0  0  0  0  0  0
   10.0945    2.1000    0.0000 N   0  0  0  0  0  0  0  0  0  0  0  0
    5.2532    2.1000    0.0000 N   0  0  0  0  0  0  0  0  0  0  0  0
    4.0450    2.7976    0.0000 C   0  0  0  0  0  0  0  0  0  0  0  0
    3.8986    4.1899    0.0000 N   0  0  0  0  0  0  0  0  0  0  0  0
    2.5292    4.4810    0.0000 C   0  0  0  0  0  0  0  0  0  0  0  0
    1.8292    3.2685    0.0000 C   0  0  0  0  0  0  0  0  0  0  0  0
    2.7660    2.2281    0.0000 S   0  0  0  0  0  0  0  0  0  0  0  0
    1.9618    5.7555    0.0000 C   0  0  0  0  0  0  0  0  0  0  0  0
    2.7847    6.8881    0.0000 C   0  0  0  0  0  0  0  0  0  0  0  0
    2.2152    8.1671    0.0000 C   0  0  0  0  0  0  0  0  0  0  0  0
    0.8229    8.3134    0.0000 C   0  0  0  0  0  0  0  0  0  0  0  0
    0.0000    7.1808    0.0000 N   0  0  0  0  0  0  0  0  0  0  0  0
    0.5694    5.9018    0.0000 C   0  0  0  0  0  0  0  0  0  0  0  0
   11.3027    2.7976    0.0000 C   0  0  0  0  0  0  0  0  0  0  0  0
   11.3027    4.1927    0.0000 O   0  0  0  0  0  0  0  0  0  0  0  0
   12.5110    2.1000    0.0000 C   0  0  0  0  0  0  0  0  0  0  0  0
   12.5110    0.7000    0.0000 C   0  0  0  0  0  0  0  0  0  0  0  0
   13.7234    0.0000    0.0000 C   0  0  0  0  0  0  0  0  0  0  0  0
   14.9358    0.7000    0.0000 C   0  0  0  0  0  0  0  0  0  0  0  0
   14.9358    2.1000    0.0000 C   0  0  0  0  0  0  0  0  0  0  0  0
   13.7234    2.8000    0.0000 C   0  0  0  0  0  0  0  0  0  0  0  0
   16.1441    0.0024    0.0000 C   0  0  0  0  0  0  0  0  0  0  0  0
   17.3523    0.7000    0.0000 N   0  0  0  0  0  0  0  0  0  0  0  0
   18.5647    0.0000    0.0000 C   0  0  0  0  0  0  0  0  0  0  0  0
   19.7772    0.7000    0.0000 C   0  0  0  0  0  0  0  0  0  0  0  0
   19.7772    2.1000    0.0000 N   0  0  0  0  0  0  0  0  0  0  0  0
   18.5647    2.8000    0.0000 C   0  0  0  0  0  0  0  0  0  0  0  0
   17.3523    2.1000    0.0000 C   0  0  0  0  0  0  0  0  0  0  0  0
   20.9854    2.7976    0.0000 C   0  0  0  0  0  0  0  0  0  0  0  0
  1  2  2  0  0  0  0
  2  3  1  0  0  0  0
  3  4  2  0  0  0  0
  4  5  1  0  0  0  0
  5  6  2  0  0  0  0
  6  1  1  0  0  0  0
  1  7  1  0  0  0  0
  4  8  1  0  0  0  0
  2  9  1  0  0  0  0
  9 10  1  0  0  0  0
 10 11  2  0  0  0  0
 11 12  1  0  0  0  0
 12 13  2  0  0  0  0
 13 14  1  0  0  0  0
 14 10  1  0  0  0  0
 12 15  1  0  0  0  0
 15 16  2  0  0  0  0
 16 17  1  0  0  0  0
 17 18  2  0  0  0  0
 18 19  1  0  0  0  0
 19 20  2  0  0  0  0
 20 15  1  0  0  0  0
  8 21  1  0  0  0  0
 21 22  2  0  0  0  0
 21 23  1  0  0  0  0
 23 24  2  0  0  0  0
 24 25  1  0  0  0  0
 25 26  2  0  0  0  0
 26 27  1  0  0  0  0
 27 28  2  0  0  0  0
 28 23  1  0  0  0  0
 26 29  1  0  0  0  0
 29 30  1  0  0  0  0
 30 31  1  0  0  0  0
 31 32  1  0  0  0  0
 32 33  1  0  0  0  0
 33 34  1  0  0  0  0
 34 35  1  0  0  0  0
 35 30  1  0  0  0  0
 33 36  1  0  0  0  0
M  END
>  <Mol_ID> (26)
40

>  <Formula> (26)
C28H30N6OS

>  <MolWeight> (26)
498.6424

>  <Cat> (26)
S1064

>  <Name> (26)
Masitinib (AB1010)

>  <Synonyms> (26)
N/A 

>  <Target> (26)
c-Kit, PDGFR, FGFR, FAK

>  <Form> (26)
Free Base

>  <CAS> (26)
790299-79-5

>  <URL> (26)
http://www.selleckchem.com/products/Masitinib-(AB1010).html

$$$$
untitled.cdx
csChFnd80/05071909292D

 35 40  0  0  0  0  0  0  0  0999 V2000
   11.0723    5.0113    0.0000 C   0  0  0  0  0  0  0  0  0  0  0  0
   11.0723    3.6113    0.0000 C   0  0  0  0  0  0  0  0  0  0  0  0
   12.2847    2.9113    0.0000 C   0  0  0  0  0  0  0  0  0  0  0  0
   13.4972    3.6113    0.0000 C   0  0  0  0  0  0  0  0  0  0  0  0
   13.4972    5.0113    0.0000 C   0  0  0  0  0  0  0  0  0  0  0  0
   12.2847    5.7113    0.0000 C   0  0  0  0  0  0  0  0  0  0  0  0
   14.5376    5.9481    0.0000 N   0  0  0  0  0  0  0  0  0  0  0  0
   13.9681    7.2270    0.0000 N   0  0  0  0  0  0  0  0  0  0  0  0
   12.5758    7.0807    0.0000 C   0  0  0  0  0  0  0  0  0  0  0  0
    9.8641    5.7089    0.0000 C   0  0  0  0  0  0  0  0  0  0  0  0
    9.8641    7.1089    0.0000 N   0  0  0  0  0  0  0  0  0  0  0  0
    8.6516    7.8089    0.0000 C   0  0  0  0  0  0  0  0  0  0  0  0
    7.4392    7.1089    0.0000 C   0  0  0  0  0  0  0  0  0  0  0  0
    7.4392    5.7089    0.0000 C   0  0  0  0  0  0  0  0  0  0  0  0
    8.6516    5.0089    0.0000 N   0  0  0  0  0  0  0  0  0  0  0  0
    6.0869    7.4712    0.0000 S   0  0  0  0  0  0  0  0  0  0  0  0
    5.3244    6.2971    0.0000 C   0  0  0  0  0  0  0  0  0  0  0  0
    6.2054    5.2091    0.0000 C   0  0  0  0  0  0  0  0  0  0  0  0
    8.6516    9.2040    0.0000 N   0  0  0  0  0  0  0  0  0  0  0  0
    9.8641    9.9040    0.0000 C   0  0  0  0  0  0  0  0  0  0  0  0
    9.8641   11.3040    0.0000 C   0  0  0  0  0  0  0  0  0  0  0  0
    8.6516   12.0040    0.0000 O   0  0  0  0  0  0  0  0  0  0  0  0
    7.4392   11.3040    0.0000 C   0  0  0  0  0  0  0  0  0  0  0  0
    7.4392    9.9040    0.0000 C   0  0  0  0  0  0  0  0  0  0  0  0
    3.9312    6.2241    0.0000 C   0  0  0  0  0  0  0  0  0  0  0  0
    3.2978    4.9810    0.0000 N   0  0  0  0  0  0  0  0  0  0  0  0
    1.8997    4.9077    0.0000 C   0  0  0  0  0  0  0  0  0  0  0  0
    1.2641    3.6603    0.0000 C   0  0  0  0  0  0  0  0  0  0  0  0
    2.0266    2.4862    0.0000 N   0  0  0  0  0  0  0  0  0  0  0  0
    3.4247    2.5594    0.0000 C   0  0  0  0  0  0  0  0  0  0  0  0
    4.0603    3.8068    0.0000 C   0  0  0  0  0  0  0  0  0  0  0  0
    1.3932    1.2431    0.0000 S   0  0  0  0  0  0  0  0  0  0  0  0
    2.1531    0.0730    0.0000 O   0  0  0  0  0  0  0  0  0  0  0  0
    0.0000    1.1701    0.0000 O   0  0  0  0  0  0  0  0  0  0  0  0
    0.7598    0.0000    0.0000 C   0  0  0  0  0  0  0  0  0  0  0  0
  1  2  2  0  0  0  0
  2  3  1  0  0  0  0
  3  4  2  0  0  0  0
  4  5  1  0  0  0  0
  5  6  2  0  0  0  0
  6  1  1  0  0  0  0
  5  7  1  0  0  0  0
  7  8  1  0  0  0  0
  8  9  2  0  0  0  0
  9  6  1  0  0  0  0
  1 10  1  0  0  0  0
 10 11  2  0  0  0  0
 11 12  1  0  0  0  0
 12 13  2  0  0  0  0
 13 14  1  0  0  0  0
 14 15  2  0  0  0  0
 15 10  1  0  0  0  0
 13 16  1  0  0  0  0
 16 17  1  0  0  0  0
 17 18  2  0  0  0  0
 18 14  1  0  0  0  0
 12 19  1  0  0  0  0
 19 20  1  0  0  0  0
 20 21  1  0  0  0  0
 21 22  1  0  0  0  0
 22 23  1  0  0  0  0
 23 24  1  0  0  0  0
 24 19  1  0  0  0  0
 17 25  1  0  0  0  0
 25 26  1  0  0  0  0
 26 27  1  0  0  0  0
 27 28  1  0  0  0  0
 28 29  1  0  0  0  0
 29 30  1  0  0  0  0
 30 31  1  0  0  0  0
 31 26  1  0  0  0  0
 29 32  1  0  0  0  0
 32 33  2  0  0  0  0
 32 34  2  0  0  0  0
 32 35  1  0  0  0  0
M  END
>  <Mol_ID> (27)
41

>  <Formula> (27)
C23H27N7O3S2

>  <MolWeight> (27)
513.63558

>  <Cat> (27)
S1065

>  <Name> (27)
Pictilisib (GDC-0941)

>  <Synonyms> (27)
RG7321

>  <Target> (27)
PI3K 

>  <Form> (27)
Free Base

>  <CAS> (27)
957054-30-7

>  <URL> (27)
http://www.selleckchem.com/products/GDC-0941.html

$$$$
untitled.cdx
csChFnd80/05071909292D

 29 33  0  0  0  0  0  0  0  0999 V2000
    0.1611    2.1000    0.0000 C   0  0  0  0  0  0  0  0  0  0  0  0
    0.1611    0.7000    0.0000 C   0  0  0  0  0  0  0  0  0  0  0  0
    1.3735    0.0000    0.0000 C   0  0  0  0  0  0  0  0  0  0  0  0
    2.5859    0.7000    0.0000 C   0  0  0  0  0  0  0  0  0  0  0  0
    2.5859    2.1000    0.0000 C   0  0  0  0  0  0  0  0  0  0  0  0
    1.3735    2.8000    0.0000 N   0  0  0  0  0  0  0  0  0  0  0  0
    3.7942    2.7976    0.0000 C   0  0  0  0  0  0  0  0  0  0  0  0
    5.0731    2.2281    0.0000 N   0  0  0  0  0  0  0  0  0  0  0  0
    6.0099    3.2685    0.0000 C   0  0  0  0  0  0  0  0  0  0  0  0
    5.3099    4.4810    0.0000 N   0  0  0  0  0  0  0  0  0  0  0  0
    3.9405    4.1899    0.0000 C   0  0  0  0  0  0  0  0  0  0  0  0
    7.3974    3.1227    0.0000 C   0  0  0  0  0  0  0  0  0  0  0  0
    2.9037    5.1234    0.0000 C   0  0  0  0  0  0  0  0  0  0  0  0
    7.9668    1.8437    0.0000 C   0  0  0  0  0  0  0  0  0  0  0  0
    9.3592    1.6974    0.0000 C   0  0  0  0  0  0  0  0  0  0  0  0
   10.1821    2.8300    0.0000 C   0  0  0  0  0  0  0  0  0  0  0  0
    9.6126    4.1090    0.0000 C   0  0  0  0  0  0  0  0  0  0  0  0
    8.2203    4.2553    0.0000 C   0  0  0  0  0  0  0  0  0  0  0  0
   11.5696    2.6842    0.0000 C   0  0  0  0  0  0  0  0  0  0  0  0
   12.3896    3.8129    0.0000 O   0  0  0  0  0  0  0  0  0  0  0  0
   12.1370    1.4097    0.0000 N   0  0  0  0  0  0  0  0  0  0  0  0
    3.1948    6.4928    0.0000 C   0  0  0  0  0  0  0  0  0  0  0  0
    2.1544    7.4296    0.0000 C   0  0  0  0  0  0  0  0  0  0  0  0
    0.8229    6.9970    0.0000 C   0  0  0  0  0  0  0  0  0  0  0  0
    0.5318    5.6276    0.0000 C   0  0  0  0  0  0  0  0  0  0  0  0
    1.5722    4.6908    0.0000 C   0  0  0  0  0  0  0  0  0  0  0  0
    2.1544    8.8296    0.0000 O   0  0  0  0  0  0  0  0  0  0  0  0
    0.8229    9.2622    0.0000 C   0  0  0  0  0  0  0  0  0  0  0  0
    0.0000    8.1296    0.0000 O   0  0  0  0  0  0  0  0  0  0  0  0
  1  2  2  0  0  0  0
  2  3  1  0  0  0  0
  3  4  2  0  0  0  0
  4  5  1  0  0  0  0
  5  6  2  0  0  0  0
  6  1  1  0  0  0  0
  5  7  1  0  0  0  0
  7  8  1  0  0  0  0
  8  9  1  0  0  0  0
  9 10  2  0  0  0  0
 10 11  1  0  0  0  0
 11  7  2  0  0  0  0
  9 12  1  0  0  0  0
 11 13  1  0  0  0  0
 12 14  2  0  0  0  0
 14 15  1  0  0  0  0
 15 16  2  0  0  0  0
 16 17  1  0  0  0  0
 17 18  2  0  0  0  0
 18 12  1  0  0  0  0
 16 19  1  0  0  0  0
 19 20  2  0  0  0  0
 19 21  1  0  0  0  0
 13 22  2  0  0  0  0
 22 23  1  0  0  0  0
 23 24  2  0  0  0  0
 24 25  1  0  0  0  0
 25 26  2  0  0  0  0
 26 13  1  0  0  0  0
 23 27  1  0  0  0  0
 27 28  1  0  0  0  0
 28 29  1  0  0  0  0
 29 24  1  0  0  0  0
M  END
>  <Mol_ID> (28)
42

>  <Formula> (28)
C22H16N4O3

>  <MolWeight> (28)
384.38744

>  <Cat> (28)
S1067

>  <Name> (28)
SB 431542

>  <Synonyms> (28)
N/A

>  <Target> (28)
TGF-beta/Smad

>  <Form> (28)
Free Base

>  <CAS> (28)
301836-41-9

>  <URL> (28)
http://www.selleckchem.com/products/SB-431542.html

$$$$
1.cdx
csChFnd80/05071909292D

 30 34  0  0  0  0  0  0  0  0999 V2000
    3.6331    6.1529    0.0000 N   0  0  0  0  0  0  0  0  0  0  0  0
    3.6331    4.7529    0.0000 C   0  0  0  0  0  0  0  0  0  0  0  0
    4.8455    4.0529    0.0000 N   0  0  0  0  0  0  0  0  0  0  0  0
    6.0580    4.7529    0.0000 C   0  0  0  0  0  0  0  0  0  0  0  0
    6.0580    6.1529    0.0000 N   0  0  0  0  0  0  0  0  0  0  0  0
    4.8455    6.8529    0.0000 C   0  0  0  0  0  0  0  0  0  0  0  0
    2.4249    4.0553    0.0000 N   0  0  0  0  0  0  0  0  0  0  0  0
    4.8455    8.2480    0.0000 N   0  0  0  0  0  0  0  0  0  0  0  0
    7.2662    4.0553    0.0000 N   0  0  0  0  0  0  0  0  0  0  0  0
    7.4125    2.6630    0.0000 C   0  0  0  0  0  0  0  0  0  0  0  0
    8.7819    2.3719    0.0000 C   0  0  0  0  0  0  0  0  0  0  0  0
    9.4819    3.5843    0.0000 N   0  0  0  0  0  0  0  0  0  0  0  0
    8.5452    4.6247    0.0000 C   0  0  0  0  0  0  0  0  0  0  0  0
    6.4758    1.6226    0.0000 C   0  0  0  0  0  0  0  0  0  0  0  0
    6.9084    0.2911    0.0000 C   0  0  0  0  0  0  0  0  0  0  0  0
    8.2778    0.0000    0.0000 C   0  0  0  0  0  0  0  0  0  0  0  0
    9.2146    1.0404    0.0000 C   0  0  0  0  0  0  0  0  0  0  0  0
    6.0580    8.9480    0.0000 C   0  0  0  0  0  0  0  0  0  0  0  0
    6.0580   10.3480    0.0000 C   0  0  0  0  0  0  0  0  0  0  0  0
    4.8455   11.0480    0.0000 O   0  0  0  0  0  0  0  0  0  0  0  0
    3.6331   10.3480    0.0000 C   0  0  0  0  0  0  0  0  0  0  0  0
    3.6331    8.9480    0.0000 C   0  0  0  0  0  0  0  0  0  0  0  0
    1.2124    4.7553    0.0000 C   0  0  0  0  0  0  0  0  0  0  0  0
    0.0000    4.0553    0.0000 C   0  0  0  0  0  0  0  0  0  0  0  0
    0.0000    2.6553    0.0000 O   0  0  0  0  0  0  0  0  0  0  0  0
    1.2124    1.9553    0.0000 C   0  0  0  0  0  0  0  0  0  0  0  0
    2.4249    2.6553    0.0000 C   0  0  0  0  0  0  0  0  0  0  0  0
    8.8352    5.9894    0.0000 C   0  0  0  0  0  0  0  0  0  0  0  0
    7.7984    6.9229    0.0000 F   0  0  0  0  0  0  0  0  0  0  0  0
   10.1621    6.4205    0.0000 F   0  0  0  0  0  0  0  0  0  0  0  0
  1  2  2  0  0  0  0
  2  3  1  0  0  0  0
  3  4  2  0  0  0  0
  4  5  1  0  0  0  0
  5  6  2  0  0  0  0
  6  1  1  0  0  0  0
  2  7  1  0  0  0  0
  6  8  1  0  0  0  0
  4  9  1  0  0  0  0
  9 10  1  0  0  0  0
 10 11  2  0  0  0  0
 11 12  1  0  0  0  0
 12 13  2  0  0  0  0
 13  9  1  0  0  0  0
 10 14  1  0  0  0  0
 14 15  2  0  0  0  0
 15 16  1  0  0  0  0
 16 17  2  0  0  0  0
 17 11  1  0  0  0  0
  8 18  1  0  0  0  0
 18 19  1  0  0  0  0
 19 20  1  0  0  0  0
 20 21  1  0  0  0  0
 21 22  1  0  0  0  0
 22  8  1  0  0  0  0
  7 23  1  0  0  0  0
 23 24  1  0  0  0  0
 24 25  1  0  0  0  0
 25 26  1  0  0  0  0
 26 27  1  0  0  0  0
 27  7  1  0  0  0  0
 13 28  1  0  0  0  0
 28 29  1  0  0  0  0
 28 30  1  0  0  0  0
M  END
>  <Mol_ID> (29)
44

>  <Formula> (29)
C19H21F2N7O2

>  <MolWeight> (29)
417.4125464

>  <Cat> (29)
S1072

>  <Name> (29)
ZSTK474

>  <Synonyms> (29)
N/A

>  <Target> (29)
PI3K 

>  <Form> (29)
Free Base

>  <CAS> (29)
475110-96-4

>  <URL> (29)
http://www.selleckchem.com/products/ZSTK474.html

$$$$
1.cdx
csChFnd80/05071909292D

 25 28  0  0  0  0  0  0  0  0999 V2000
    0.0000    5.4567    0.0000 C   0  0  0  0  0  0  0  0  0  0  0  0
    0.0000    4.0567    0.0000 C   0  0  0  0  0  0  0  0  0  0  0  0
    1.2124    3.3567    0.0000 C   0  0  0  0  0  0  0  0  0  0  0  0
    2.4249    4.0567    0.0000 C   0  0  0  0  0  0  0  0  0  0  0  0
    2.4249    5.4567    0.0000 C   0  0  0  0  0  0  0  0  0  0  0  0
    1.2124    6.1567    0.0000 C   0  0  0  0  0  0  0  0  0  0  0  0
    3.4148    6.4466    0.0000 C   0  0  0  0  0  0  0  0  0  0  0  0
    2.7792    7.6940    0.0000 C   0  0  0  0  0  0  0  0  0  0  0  0
    1.3965    7.4750    0.0000 N   0  0  0  0  0  0  0  0  0  0  0  0
    4.7928    6.2284    0.0000 C   0  0  0  0  0  0  0  0  0  0  0  0
    5.4284    4.9810    0.0000 C   0  0  0  0  0  0  0  0  0  0  0  0
    6.8111    5.2000    0.0000 C   0  0  0  0  0  0  0  0  0  0  0  0
    7.0301    6.5827    0.0000 N   0  0  0  0  0  0  0  0  0  0  0  0
    5.7827    7.2183    0.0000 C   0  0  0  0  0  0  0  0  0  0  0  0
    5.5645    8.5963    0.0000 O   0  0  0  0  0  0  0  0  0  0  0  0
    7.7976    4.2135    0.0000 O   0  0  0  0  0  0  0  0  0  0  0  0
    4.7950    3.7379    0.0000 C   0  0  0  0  0  0  0  0  0  0  0  0
    3.3969    3.6646    0.0000 C   0  0  0  0  0  0  0  0  0  0  0  0
    2.7613    2.4172    0.0000 C   0  0  0  0  0  0  0  0  0  0  0  0
    3.5238    1.2431    0.0000 C   0  0  0  0  0  0  0  0  0  0  0  0
    4.9219    1.3163    0.0000 C   0  0  0  0  0  0  0  0  0  0  0  0
    5.5575    2.5638    0.0000 C   0  0  0  0  0  0  0  0  0  0  0  0
    0.4009    8.4524    0.0000 C   0  0  0  0  0  0  0  0  0  0  0  0
    6.9507    2.6368    0.0000 Cl  0  0  0  0  0  0  0  0  0  0  0  0
    2.8904    0.0000    0.0000 Cl  0  0  0  0  0  0  0  0  0  0  0  0
  1  2  2  0  0  0  0
  2  3  1  0  0  0  0
  3  4  2  0  0  0  0
  4  5  1  0  0  0  0
  5  6  2  0  0  0  0
  6  1  1  0  0  0  0
  5  7  1  0  0  0  0
  7  8  2  0  0  0  0
  8  9  1  0  0  0  0
  9  6  1  0  0  0  0
  7 10  1  0  0  0  0
 10 11  2  0  0  0  0
 11 12  1  0  0  0  0
 12 13  1  0  0  0  0
 13 14  1  0  0  0  0
 14 10  1  0  0  0  0
 14 15  2  0  0  0  0
 12 16  2  0  0  0  0
 11 17  1  0  0  0  0
 17 18  2  0  0  0  0
 18 19  1  0  0  0  0
 19 20  2  0  0  0  0
 20 21  1  0  0  0  0
 21 22  2  0  0  0  0
 22 17  1  0  0  0  0
  9 23  1  0  0  0  0
 22 24  1  0  0  0  0
 20 25  1  0  0  0  0
M  END
>  <Mol_ID> (30)
45

>  <Formula> (30)
C19H12Cl2N2O2

>  <MolWeight> (30)
371.21678

>  <Cat> (30)
S1075

>  <Name> (30)
SB 216763

>  <Synonyms> (30)
N/A

>  <Target> (30)
GSK-3 

>  <Form> (30)
Free Base

>  <CAS> (30)
280744-09-4

>  <URL> (30)
http://www.selleckchem.com/products/SB-216763.html

$$$$
SB203580.cdx
csChFnd80/05071909292D

 27 30  0  0  0  0  0  0  0  0999 V2000
    0.3750    7.2305    0.0000 N   0  0  0  0  0  0  0  0  0  0  0  0
    0.3750    5.8305    0.0000 C   0  0  0  0  0  0  0  0  0  0  0  0
    1.5874    5.1305    0.0000 C   0  0  0  0  0  0  0  0  0  0  0  0
    2.7998    5.8305    0.0000 C   0  0  0  0  0  0  0  0  0  0  0  0
    2.7998    7.2305    0.0000 C   0  0  0  0  0  0  0  0  0  0  0  0
    1.5874    7.9305    0.0000 C   0  0  0  0  0  0  0  0  0  0  0  0
    4.0080    5.1330    0.0000 C   0  0  0  0  0  0  0  0  0  0  0  0
    4.1544    3.7406    0.0000 C   0  0  0  0  0  0  0  0  0  0  0  0
    5.5238    3.4496    0.0000 N   0  0  0  0  0  0  0  0  0  0  0  0
    6.2238    4.6620    0.0000 C   0  0  0  0  0  0  0  0  0  0  0  0
    5.2870    5.7024    0.0000 N   0  0  0  0  0  0  0  0  0  0  0  0
    3.1176    2.8071    0.0000 C   0  0  0  0  0  0  0  0  0  0  0  0
    1.7861    3.2397    0.0000 C   0  0  0  0  0  0  0  0  0  0  0  0
    0.7457    2.3029    0.0000 C   0  0  0  0  0  0  0  0  0  0  0  0
    1.0368    0.9335    0.0000 C   0  0  0  0  0  0  0  0  0  0  0  0
    2.3683    0.5009    0.0000 C   0  0  0  0  0  0  0  0  0  0  0  0
    3.4087    1.4377    0.0000 C   0  0  0  0  0  0  0  0  0  0  0  0
    0.0000    0.0000    0.0000 F   0  0  0  0  0  0  0  0  0  0  0  0
    7.6113    4.8078    0.0000 C   0  0  0  0  0  0  0  0  0  0  0  0
    8.4342    3.6752    0.0000 C   0  0  0  0  0  0  0  0  0  0  0  0
    9.8265    3.8215    0.0000 C   0  0  0  0  0  0  0  0  0  0  0  0
   10.3960    5.1005    0.0000 C   0  0  0  0  0  0  0  0  0  0  0  0
    9.5731    6.2331    0.0000 C   0  0  0  0  0  0  0  0  0  0  0  0
    8.1807    6.0868    0.0000 C   0  0  0  0  0  0  0  0  0  0  0  0
   11.7835    5.2463    0.0000 S   0  0  3  0  0  0  0  0  0  0  0  0
   12.6035    4.1176    0.0000 C   0  0  0  0  0  0  0  0  0  0  0  0
   12.3509    6.5209    0.0000 O   0  0  0  0  0  0  0  0  0  0  0  0
  1  2  2  0  0  0  0
  2  3  1  0  0  0  0
  3  4  2  0  0  0  0
  4  5  1  0  0  0  0
  5  6  2  0  0  0  0
  6  1  1  0  0  0  0
  4  7  1  0  0  0  0
  7  8  2  0  0  0  0
  8  9  1  0  0  0  0
  9 10  2  0  0  0  0
 10 11  1  0  0  0  0
 11  7  1  0  0  0  0
  8 12  1  0  0  0  0
 12 13  2  0  0  0  0
 13 14  1  0  0  0  0
 14 15  2  0  0  0  0
 15 16  1  0  0  0  0
 16 17  2  0  0  0  0
 17 12  1  0  0  0  0
 15 18  1  0  0  0  0
 10 19  1  0  0  0  0
 19 20  2  0  0  0  0
 20 21  1  0  0  0  0
 21 22  2  0  0  0  0
 22 23  1  0  0  0  0
 23 24  2  0  0  0  0
 24 19  1  0  0  0  0
 22 25  1  0  0  0  0
 25 26  1  0  0  0  0
 25 27  2  0  0  0  0
M  END
>  <Mol_ID> (31)
46

>  <Formula> (31)
C21H16FN3OS

>  <MolWeight> (31)
377.4346432

>  <Cat> (31)
S1076

>  <Name> (31)
SB 203580

>  <Synonyms> (31)
N/A

>  <Target> (31)
p38 MAPK 

>  <Form> (31)
Free Base

>  <CAS> (31)
152121-47-6

>  <URL> (31)
http://www.selleckchem.com/products/SB-203580.html

$$$$
1.cdx
csChFnd80/05071909292D

 25 28  0  0  0  0  0  0  0  0999 V2000
    1.2082    2.1000    0.0000 C   0  0  0  0  0  0  0  0  0  0  0  0
    1.2082    0.7000    0.0000 C   0  0  0  0  0  0  0  0  0  0  0  0
    2.4207    0.0000    0.0000 C   0  0  0  0  0  0  0  0  0  0  0  0
    3.6331    0.7000    0.0000 C   0  0  0  0  0  0  0  0  0  0  0  0
    3.6331    2.1000    0.0000 C   0  0  0  0  0  0  0  0  0  0  0  0
    2.4207    2.8000    0.0000 C   0  0  0  0  0  0  0  0  0  0  0  0
    4.8413    2.7976    0.0000 C   0  0  0  0  0  0  0  0  0  0  0  0
    6.1203    2.2281    0.0000 N   0  0  0  0  0  0  0  0  0  0  0  0
    7.0571    3.2685    0.0000 C   0  0  0  0  0  0  0  0  0  0  0  0
    6.3571    4.4810    0.0000 N   0  0  0  0  0  0  0  0  0  0  0  0
    4.9877    4.1899    0.0000 C   0  0  0  0  0  0  0  0  0  0  0  0
    3.9509    5.1234    0.0000 C   0  0  0  0  0  0  0  0  0  0  0  0
    0.0000    0.0024    0.0000 F   0  0  0  0  0  0  0  0  0  0  0  0
    4.2420    6.4928    0.0000 C   0  0  0  0  0  0  0  0  0  0  0  0
    3.2015    7.4296    0.0000 C   0  0  0  0  0  0  0  0  0  0  0  0
    1.8701    6.9970    0.0000 N   0  0  0  0  0  0  0  0  0  0  0  0
    1.5790    5.6276    0.0000 C   0  0  0  0  0  0  0  0  0  0  0  0
    2.6194    4.6908    0.0000 C   0  0  0  0  0  0  0  0  0  0  0  0
    8.4446    3.1227    0.0000 C   0  0  0  0  0  0  0  0  0  0  0  0
    9.0140    1.8437    0.0000 C   0  0  0  0  0  0  0  0  0  0  0  0
   10.4063    1.6974    0.0000 C   0  0  0  0  0  0  0  0  0  0  0  0
   11.2292    2.8300    0.0000 C   0  0  0  0  0  0  0  0  0  0  0  0
   10.6598    4.1090    0.0000 C   0  0  0  0  0  0  0  0  0  0  0  0
    9.2675    4.2553    0.0000 C   0  0  0  0  0  0  0  0  0  0  0  0
   12.6167    2.6842    0.0000 O   0  0  0  0  0  0  0  0  0  0  0  0
  1  2  2  0  0  0  0
  2  3  1  0  0  0  0
  3  4  2  0  0  0  0
  4  5  1  0  0  0  0
  5  6  2  0  0  0  0
  6  1  1  0  0  0  0
  5  7  1  0  0  0  0
  7  8  1  0  0  0  0
  8  9  2  0  0  0  0
  9 10  1  0  0  0  0
 10 11  1  0  0  0  0
 11  7  2  0  0  0  0
 11 12  1  0  0  0  0
  2 13  1  0  0  0  0
 12 14  2  0  0  0  0
 14 15  1  0  0  0  0
 15 16  2  0  0  0  0
 16 17  1  0  0  0  0
 17 18  2  0  0  0  0
 18 12  1  0  0  0  0
  9 19  1  0  0  0  0
 19 20  2  0  0  0  0
 20 21  1  0  0  0  0
 21 22  2  0  0  0  0
 22 23  1  0  0  0  0
 23 24  2  0  0  0  0
 24 19  1  0  0  0  0
 22 25  1  0  0  0  0
M  END
>  <Mol_ID> (32)
47

>  <Formula> (32)
C20H14FN3O

>  <MolWeight> (32)
331.3430632

>  <Cat> (32)
S1077

>  <Name> (32)
SB202190 (FHPI)

>  <Synonyms> (32)
N/A

>  <Target> (32)
p38 MAPK 

>  <Form> (32)
Free Base

>  <CAS> (32)
152121-30-7

>  <URL> (32)
http://www.selleckchem.com/products/SB-202190.html

$$$$

csChFnd80/05071909292D

 33 36  0  0  0  0  0  0  0  0999 V2000
   16.2170  -28.2135    0.0000 C   0  0  0  0  0  0  0  0  0  0  0  0
   16.2170  -29.6135    0.0000 C   0  0  0  0  0  0  0  0  0  0  0  0
   17.4294  -30.3135    0.0000 C   0  0  0  0  0  0  0  0  0  0  0  0
   18.6418  -29.6135    0.0000 C   0  0  0  0  0  0  0  0  0  0  0  0
   18.6418  -28.2135    0.0000 C   0  0  0  0  0  0  0  0  0  0  0  0
   17.4294  -27.5135    0.0000 C   0  0  0  0  0  0  0  0  0  0  0  0
   15.0087  -27.5159    0.0000 C   0  0  0  0  0  0  0  0  0  0  0  0
   15.0087  -26.1159    0.0000 C   0  0  0  0  0  0  0  0  0  0  0  0
   13.7963  -25.4159    0.0000 N   0  0  0  0  0  0  0  0  0  0  0  0
   12.5839  -26.1159    0.0000 C   0  0  0  0  0  0  0  0  0  0  0  0
   12.5839  -27.5159    0.0000 C   0  0  0  0  0  0  0  0  0  0  0  0
   13.7963  -28.2159    0.0000 C   0  0  0  0  0  0  0  0  0  0  0  0
   11.3714  -25.4159    0.0000 C   0  0  0  0  0  0  0  0  0  0  0  0
   10.1590  -26.1159    0.0000 C   0  0  0  0  0  0  0  0  0  0  0  0
   10.1590  -27.5159    0.0000 N   0  0  0  0  0  0  0  0  0  0  0  0
   11.3714  -28.2159    0.0000 C   0  0  0  0  0  0  0  0  0  0  0  0
    9.1186  -28.4527    0.0000 C   0  0  0  0  0  0  0  0  0  0  0  0
    9.6880  -29.7317    0.0000 N   0  0  0  0  0  0  0  0  0  0  0  0
   11.0803  -29.5853    0.0000 N   0  0  0  0  0  0  0  0  0  0  0  0
    7.7539  -28.1626    0.0000 O   0  0  0  0  0  0  0  0  0  0  0  0
   16.2170  -25.4184    0.0000 C   0  0  0  0  0  0  0  0  0  0  0  0
   17.4294  -26.1184    0.0000 C   0  0  0  0  0  0  0  0  0  0  0  0
   18.6418  -25.4184    0.0000 C   0  0  0  0  0  0  0  0  0  0  0  0
   18.6418  -24.0184    0.0000 C   0  0  0  0  0  0  0  0  0  0  0  0
   17.4294  -23.3184    0.0000 C   0  0  0  0  0  0  0  0  0  0  0  0
   16.2170  -24.0184    0.0000 C   0  0  0  0  0  0  0  0  0  0  0  0
   19.8501  -23.3208    0.0000 C   0  0  0  0  0  0  0  0  0  0  0  0
   21.2024  -23.6831    0.0000 C   0  0  0  0  0  0  0  0  0  0  0  0
   21.5647  -22.3308    0.0000 C   0  0  0  0  0  0  0  0  0  0  0  0
   20.2124  -21.9685    0.0000 C   0  0  0  0  0  0  0  0  0  0  0  0
   18.7432  -22.4715    0.0000 N   0  0  0  0  0  0  0  0  0  0  0  0
   11.6083  -14.3381    0.0000 Cl  0  0  0  0  0  0  0  0  0  0  0  0
   10.2083  -14.3381    0.0000 Cl  0  0  0  0  0  0  0  0  0  0  0  0
  1  2  2  0  0  0  0
  2  3  1  0  0  0  0
  3  4  2  0  0  0  0
  4  5  1  0  0  0  0
  5  6  2  0  0  0  0
  6  1  1  0  0  0  0
  1  7  1  0  0  0  0
  7  8  2  0  0  0  0
  8  9  1  0  0  0  0
  9 10  2  0  0  0  0
 10 11  1  0  0  0  0
 11 12  2  0  0  0  0
 12  7  1  0  0  0  0
 10 13  1  0  0  0  0
 13 14  2  0  0  0  0
 14 15  1  0  0  0  0
 15 16  1  0  0  0  0
 16 11  1  0  0  0  0
 15 17  1  0  0  0  0
 17 18  1  0  0  0  0
 18 19  1  0  0  0  0
 19 16  2  0  0  0  0
 17 20  2  0  0  0  0
  8 21  1  0  0  0  0
 21 22  2  0  0  0  0
 22 23  1  0  0  0  0
 23 24  2  0  0  0  0
 24 25  1  0  0  0  0
 25 26  2  0  0  0  0
 26 21  1  0  0  0  0
 24 27  1  0  0  0  0
 27 28  1  0  0  0  0
 28 29  1  0  0  0  0
 29 30  1  0  0  0  0
 30 27  1  0  0  0  0
 27 31  1  0  0  0  0
M  END
>  <Mol_ID> (33)
48

>  <Formula> (33)
C25H23Cl2N5O

>  <MolWeight> (33)
480.38902

>  <Cat> (33)
S1078

>  <Name> (33)
MK-2206 dihydrochloride

>  <Synonyms> (33)
N/A

>  <Target> (33)
Akt

>  <Form> (33)
Dihydrochloride

>  <CAS> (33)
1032350-13-2

>  <URL> (33)
http://www.selleckchem.com/products/MK-2206.html

$$$$
untitled.cdx
csChFnd80/05071909292D

 39 43  0  0  0  0  0  0  0  0999 V2000
    1.2082    3.5214    0.0000 C   0  0  0  0  0  0  0  0  0  0  0  0
    1.2082    2.1214    0.0000 C   0  0  0  0  0  0  0  0  0  0  0  0
    2.4207    1.4214    0.0000 C   0  0  0  0  0  0  0  0  0  0  0  0
    3.6331    2.1214    0.0000 C   0  0  0  0  0  0  0  0  0  0  0  0
    3.6331    3.5214    0.0000 C   0  0  0  0  0  0  0  0  0  0  0  0
    2.4207    4.2214    0.0000 C   0  0  0  0  0  0  0  0  0  0  0  0
    0.0000    4.2190    0.0000 Cl  0  0  0  0  0  0  0  0  0  0  0  0
    4.8413    4.2190    0.0000 N   0  0  0  0  0  0  0  0  0  0  0  0
    4.8413    5.6141    0.0000 C   0  0  0  0  0  0  0  0  0  0  0  0
    6.0496    3.5214    0.0000 S   0  0  0  0  0  0  0  0  0  0  0  0
    7.2578    4.2190    0.0000 C   0  0  0  0  0  0  0  0  0  0  0  0
    5.3496    2.3090    0.0000 O   0  0  0  0  0  0  0  0  0  0  0  0
    6.7496    2.3090    0.0000 O   0  0  0  0  0  0  0  0  0  0  0  0
    8.4702    3.5190    0.0000 C   0  0  0  0  0  0  0  0  0  0  0  0
    9.6827    4.2190    0.0000 C   0  0  0  0  0  0  0  0  0  0  0  0
    9.6827    5.6190    0.0000 C   0  0  0  0  0  0  0  0  0  0  0  0
    8.4702    6.3190    0.0000 C   0  0  0  0  0  0  0  0  0  0  0  0
    7.2578    5.6190    0.0000 C   0  0  0  0  0  0  0  0  0  0  0  0
   11.0141    3.7863    0.0000 C   0  0  0  0  0  0  0  0  0  0  0  0
   11.8370    4.9190    0.0000 C   0  0  0  0  0  0  0  0  0  0  0  0
   11.0141    6.0516    0.0000 N   0  0  0  0  0  0  0  0  0  0  0  0
   13.2322    4.9190    0.0000 O   0  0  0  0  0  0  0  0  0  0  0  0
   11.4453    2.4595    0.0000 C   0  0  0  0  0  0  0  0  0  0  0  0
   12.8099    2.1694    0.0000 C   0  0  0  0  0  0  0  0  0  0  0  0
   13.3793    0.8905    0.0000 N   0  0  0  0  0  0  0  0  0  0  0  0
   14.7717    1.0368    0.0000 C   0  0  0  0  0  0  0  0  0  0  0  0
   15.0627    2.4062    0.0000 C   0  0  0  0  0  0  0  0  0  0  0  0
   13.8503    3.1062    0.0000 C   0  0  0  0  0  0  0  0  0  0  0  0
   13.7045    4.4937    0.0000 C   0  0  0  0  0  0  0  0  0  0  0  0
   15.7052    0.0000    0.0000 C   0  0  0  0  0  0  0  0  0  0  0  0
   16.3373    2.9737    0.0000 C   0  0  0  0  0  0  0  0  0  0  0  0
   16.4831    4.3611    0.0000 N   0  0  0  0  0  0  0  0  0  0  0  0
   17.4660    2.1536    0.0000 O   0  0  0  0  0  0  0  0  0  0  0  0
   17.7621    4.9306    0.0000 C   0  0  0  0  0  0  0  0  0  0  0  0
   17.9084    6.3229    0.0000 C   0  0  0  0  0  0  0  0  0  0  0  0
   16.7758    7.1458    0.0000 N   0  0  0  0  0  0  0  0  0  0  0  0
   15.4968    6.5764    0.0000 C   0  0  0  0  0  0  0  0  0  0  0  0
   15.3505    5.1840    0.0000 C   0  0  0  0  0  0  0  0  0  0  0  0
   16.9216    8.5333    0.0000 C   0  0  0  0  0  0  0  0  0  0  0  0
  1  2  2  0  0  0  0
  2  3  1  0  0  0  0
  3  4  2  0  0  0  0
  4  5  1  0  0  0  0
  5  6  2  0  0  0  0
  6  1  1  0  0  0  0
  1  7  1  0  0  0  0
  5  8  1  0  0  0  0
  8  9  1  0  0  0  0
  8 10  1  0  0  0  0
 10 11  1  0  0  0  0
 10 12  2  0  0  0  0
 10 13  2  0  0  0  0
 11 14  2  0  0  0  0
 14 15  1  0  0  0  0
 15 16  2  0  0  0  0
 16 17  1  0  0  0  0
 17 18  2  0  0  0  0
 18 11  1  0  0  0  0
 15 19  1  0  0  0  0
 19 20  1  0  0  0  0
 20 21  1  0  0  0  0
 21 16  1  0  0  0  0
 20 22  2  0  0  0  0
 19 23  2  0  0  0  0
 23 24  1  0  0  0  0
 24 25  1  0  0  0  0
 25 26  1  0  0  0  0
 26 27  2  0  0  0  0
 27 28  1  0  0  0  0
 28 24  2  0  0  0  0
 28 29  1  0  0  0  0
 26 30  1  0  0  0  0
 27 31  1  0  0  0  0
 31 32  1  0  0  0  0
 31 33  2  0  0  0  0
 32 34  1  0  0  0  0
 34 35  1  0  0  0  0
 35 36  1  0  0  0  0
 36 37  1  0  0  0  0
 37 38  1  0  0  0  0
 38 32  1  0  0  0  0
 36 39  1  0  0  0  0
M  END
>  <Mol_ID> (34)
49

>  <Formula> (34)
C28H30ClN5O4S

>  <MolWeight> (34)
568.0869

>  <Cat> (34)
S1080

>  <Name> (34)
SU11274

>  <Synonyms> (34)
PKI-SU11274

>  <Target> (34)
c-Met 

>  <Form> (34)
Free Base

>  <CAS> (34)
658084-23-2

>  <URL> (34)
http://www.selleckchem.com/products/SU11274.html

$$$$
Brivanib.cdx
csChFnd80/05071909292D

 27 30  0  0  0  0  0  0  0  0999 V2000
    3.5544    7.3249    0.0000 C   0  0  0  0  0  0  0  0  0  0  0  0
    3.5544    5.9249    0.0000 C   0  0  0  0  0  0  0  0  0  0  0  0
    4.7668    5.2249    0.0000 C   0  0  0  0  0  0  0  0  0  0  0  0
    5.9792    5.9249    0.0000 C   0  0  0  0  0  0  0  0  0  0  0  0
    5.9792    7.3249    0.0000 C   0  0  0  0  0  0  0  0  0  0  0  0
    4.7668    8.0249    0.0000 C   0  0  0  0  0  0  0  0  0  0  0  0
    2.2229    7.7575    0.0000 N   0  0  0  0  0  0  0  0  0  0  0  0
    1.4000    6.6249    0.0000 C   0  0  0  0  0  0  0  0  0  0  0  0
    2.2229    5.4922    0.0000 C   0  0  0  0  0  0  0  0  0  0  0  0
    0.0000    6.6249    0.0000 C   0  0  0  0  0  0  0  0  0  0  0  0
    4.7668    3.8249    0.0000 F   0  0  0  0  0  0  0  0  0  0  0  0
    7.1917    5.2249    0.0000 O   0  0  0  0  0  0  0  0  0  0  0  0
    7.1917    3.8249    0.0000 C   0  0  0  0  0  0  0  0  0  0  0  0
    5.9792    3.1249    0.0000 N   0  0  0  0  0  0  0  0  0  0  0  0
    5.9792    1.7249    0.0000 C   0  0  0  0  0  0  0  0  0  0  0  0
    7.1917    1.0249    0.0000 N   0  0  0  0  0  0  0  0  0  0  0  0
    8.4041    1.7249    0.0000 N   0  0  0  0  0  0  0  0  0  0  0  0
    8.4041    3.1249    0.0000 C   0  0  0  0  0  0  0  0  0  0  0  0
    9.7356    1.2922    0.0000 C   0  0  0  0  0  0  0  0  0  0  0  0
   10.5585    2.4249    0.0000 C   0  0  0  0  0  0  0  0  0  0  0  0
    9.7356    3.5575    0.0000 C   0  0  0  0  0  0  0  0  0  0  0  0
   10.1682    4.8890    0.0000 C   0  0  0  0  0  0  0  0  0  0  0  0
   11.9585    2.4249    0.0000 O   0  0  0  0  0  0  0  0  0  0  0  0
   12.6585    1.2124    0.0000 C   0  0  0  0  0  0  0  0  0  0  0  0
   14.0585    1.2124    0.0000 C   0  0  1  0  0  0  0  0  0  0  0  0
   14.7585    0.0000    0.0000 C   0  0  0  0  0  0  0  0  0  0  0  0
   14.7585    2.4249    0.0000 O   0  0  0  0  0  0  0  0  0  0  0  0
  1  2  2  0  0  0  0
  2  3  1  0  0  0  0
  3  4  2  0  0  0  0
  4  5  1  0  0  0  0
  5  6  2  0  0  0  0
  6  1  1  0  0  0  0
  1  7  1  0  0  0  0
  7  8  1  0  0  0  0
  8  9  2  0  0  0  0
  9  2  1  0  0  0  0
  8 10  1  0  0  0  0
  3 11  1  0  0  0  0
  4 12  1  0  0  0  0
 12 13  1  0  0  0  0
 13 14  2  0  0  0  0
 14 15  1  0  0  0  0
 15 16  2  0  0  0  0
 16 17  1  0  0  0  0
 17 18  1  0  0  0  0
 18 13  1  0  0  0  0
 17 19  1  0  0  0  0
 19 20  2  0  0  0  0
 20 21  1  0  0  0  0
 21 18  2  0  0  0  0
 21 22  1  0  0  0  0
 20 23  1  0  0  0  0
 23 24  1  0  0  0  0
 24 25  1  0  0  0  0
 25 26  1  0  0  0  0
 25 27  1  6  0  0  0
M  END
>  <Mol_ID> (35)
51

>  <Formula> (35)
C19H19FN4O3

>  <MolWeight> (35)
370.3775632

>  <Cat> (35)
S1084

>  <Name> (35)
Brivanib (BMS-540215)

>  <Synonyms> (35)
N/A 

>  <Target> (35)
VEGFR, FGFR

>  <Form> (35)
Free Base

>  <CAS> (35)
649735-46-6

>  <URL> (35)
http://www.selleckchem.com/products/Brivanib.html

$$$$
NVP-ADW742.cdx
csChFnd80/05071909292D

 34 39  0  0  0  0  0  0  0  0999 V2000
    6.4230    7.9384    0.0000 C   0  0  0  0  0  0  0  0  0  0  0  0
    6.4230    6.5384    0.0000 C   0  0  0  0  0  0  0  0  0  0  0  0
    7.6355    5.8384    0.0000 N   0  0  0  0  0  0  0  0  0  0  0  0
    8.8479    6.5384    0.0000 C   0  0  0  0  0  0  0  0  0  0  0  0
    8.8479    7.9384    0.0000 N   0  0  0  0  0  0  0  0  0  0  0  0
    7.6355    8.6384    0.0000 C   0  0  0  0  0  0  0  0  0  0  0  0
    5.0916    8.3710    0.0000 C   0  0  0  0  0  0  0  0  0  0  0  0
    4.2687    7.2384    0.0000 C   0  0  0  0  0  0  0  0  0  0  0  0
    5.0916    6.1057    0.0000 N   0  0  0  0  0  0  0  0  0  0  0  0
    7.6355   10.0335    0.0000 N   0  0  0  0  0  0  0  0  0  0  0  0
    4.6604    9.6978    0.0000 C   0  0  0  0  0  0  0  0  0  0  0  0
    5.5972   10.7383    0.0000 C   0  0  0  0  0  0  0  0  0  0  0  0
    5.1646   12.0697    0.0000 C   0  0  0  0  0  0  0  0  0  0  0  0
    3.7952   12.3608    0.0000 C   0  0  0  0  0  0  0  0  0  0  0  0
    2.8584   11.3204    0.0000 C   0  0  0  0  0  0  0  0  0  0  0  0
    3.2910    9.9889    0.0000 C   0  0  0  0  0  0  0  0  0  0  0  0
    6.0981   13.1065    0.0000 O   0  0  0  0  0  0  0  0  0  0  0  0
    4.6604    4.7789    0.0000 C   0  0  2  0  0  0  0  0  0  0  0  0
    3.4130    4.1433    0.0000 C   0  0  0  0  0  0  0  0  0  0  0  0
    4.0486    2.8959    0.0000 C   0  0  2  0  0  0  0  0  0  0  0  0
    5.2960    3.5315    0.0000 C   0  0  0  0  0  0  0  0  0  0  0  0
    3.6175    1.5690    0.0000 C   0  0  0  0  0  0  0  0  0  0  0  0
    7.4628   12.8165    0.0000 C   0  0  0  0  0  0  0  0  0  0  0  0
    8.3963   13.8532    0.0000 C   0  0  0  0  0  0  0  0  0  0  0  0
    9.7657   13.5622    0.0000 C   0  0  0  0  0  0  0  0  0  0  0  0
   10.7025   14.6026    0.0000 C   0  0  0  0  0  0  0  0  0  0  0  0
   10.2699   15.9341    0.0000 C   0  0  0  0  0  0  0  0  0  0  0  0
    8.9005   16.2251    0.0000 C   0  0  0  0  0  0  0  0  0  0  0  0
    7.9637   15.1847    0.0000 C   0  0  0  0  0  0  0  0  0  0  0  0
    2.2528    1.2790    0.0000 N   0  0  0  0  0  0  0  0  0  0  0  0
    1.2124    2.2157    0.0000 C   0  0  0  0  0  0  0  0  0  0  0  0
    0.0000    1.5157    0.0000 C   0  0  0  0  0  0  0  0  0  0  0  0
    0.2911    0.1463    0.0000 C   0  0  0  0  0  0  0  0  0  0  0  0
    1.6834    0.0000    0.0000 C   0  0  0  0  0  0  0  0  0  0  0  0
  1  2  2  0  0  0  0
  2  3  1  0  0  0  0
  3  4  2  0  0  0  0
  4  5  1  0  0  0  0
  5  6  2  0  0  0  0
  6  1  1  0  0  0  0
  1  7  1  0  0  0  0
  7  8  2  0  0  0  0
  8  9  1  0  0  0  0
  9  2  1  0  0  0  0
  6 10  1  0  0  0  0
 11 12  2  0  0  0  0
 12 13  1  0  0  0  0
 13 14  2  0  0  0  0
 14 15  1  0  0  0  0
 15 16  2  0  0  0  0
 16 11  1  0  0  0  0
 13 17  1  0  0  0  0
 18  9  1  1  0  0  0
 18 19  1  0  0  0  0
 19 20  1  0  0  0  0
 20 21  1  0  0  0  0
 21 18  1  0  0  0  0
 20 22  1  6  0  0  0
 17 23  1  0  0  0  0
 23 24  1  0  0  0  0
 24 25  2  0  0  0  0
 25 26  1  0  0  0  0
 26 27  2  0  0  0  0
 27 28  1  0  0  0  0
 28 29  2  0  0  0  0
 29 24  1  0  0  0  0
 22 30  1  0  0  0  0
 30 31  1  0  0  0  0
 31 32  1  0  0  0  0
 32 33  1  0  0  0  0
 33 34  1  0  0  0  0
 34 30  1  0  0  0  0
  7 11  1  0  0  0  0
M  END
>  <Mol_ID> (36)
54

>  <Formula> (36)
C28H31N5O

>  <MolWeight> (36)
453.57864

>  <Cat> (36)
S1088

>  <Name> (36)
NVP-ADW742

>  <Synonyms> (36)
ADW742

>  <Target> (36)
IGF-1R

>  <Form> (36)
Free Base

>  <CAS> (36)
475488-23-4

>  <URL> (36)
http://www.selleckchem.com/products/NVP-ADW742.html

$$$$
untitled.cdx
csChFnd80/05071909292D

 27 31  0  0  0  0  0  0  0  0999 V2000
    0.0000    2.1000    0.0000 C   0  0  0  0  0  0  0  0  0  0  0  0
    0.0000    0.7000    0.0000 C   0  0  0  0  0  0  0  0  0  0  0  0
    1.2124    0.0000    0.0000 C   0  0  0  0  0  0  0  0  0  0  0  0
    2.4249    0.7000    0.0000 C   0  0  0  0  0  0  0  0  0  0  0  0
    2.4249    2.1000    0.0000 C   0  0  0  0  0  0  0  0  0  0  0  0
    1.2124    2.8000    0.0000 C   0  0  0  0  0  0  0  0  0  0  0  0
    3.6331    2.7976    0.0000 S   0  0  0  0  0  0  0  0  0  0  0  0
    3.6331    0.0024    0.0000 S   0  0  0  0  0  0  0  0  0  0  0  0
    4.8497    0.7000    0.0000 C   0  0  0  0  0  0  0  0  0  0  0  0
    4.8497    2.1000    0.0000 C   0  0  0  0  0  0  0  0  0  0  0  0
    6.0622    0.0000    0.0000 C   0  0  0  0  0  0  0  0  0  0  0  0
    7.2746    0.7000    0.0000 C   0  0  0  0  0  0  0  0  0  0  0  0
    7.2746    2.1000    0.0000 C   0  0  0  0  0  0  0  0  0  0  0  0
    6.0622    2.8000    0.0000 C   0  0  0  0  0  0  0  0  0  0  0  0
    6.0622    4.1951    0.0000 C   0  0  0  0  0  0  0  0  0  0  0  0
    7.2746    4.8951    0.0000 C   0  0  0  0  0  0  0  0  0  0  0  0
    7.2746    6.2951    0.0000 C   0  0  0  0  0  0  0  0  0  0  0  0
    6.0622    6.9951    0.0000 C   0  0  0  0  0  0  0  0  0  0  0  0
    4.8497    6.2951    0.0000 C   0  0  0  0  0  0  0  0  0  0  0  0
    4.8497    4.8951    0.0000 O   0  0  0  0  0  0  0  0  0  0  0  0
    8.4828    6.9927    0.0000 O   0  0  0  0  0  0  0  0  0  0  0  0
    3.6415    6.9927    0.0000 N   0  0  0  0  0  0  0  0  0  0  0  0
    3.6415    8.3927    0.0000 C   0  0  0  0  0  0  0  0  0  0  0  0
    2.4291    9.0927    0.0000 C   0  0  0  0  0  0  0  0  0  0  0  0
    1.2166    8.3927    0.0000 O   0  0  0  0  0  0  0  0  0  0  0  0
    1.2166    6.9927    0.0000 C   0  0  0  0  0  0  0  0  0  0  0  0
    2.4291    6.2927    0.0000 C   0  0  0  0  0  0  0  0  0  0  0  0
  1  2  2  0  0  0  0
  2  3  1  0  0  0  0
  3  4  2  0  0  0  0
  4  5  1  0  0  0  0
  5  6  2  0  0  0  0
  6  1  1  0  0  0  0
  5  7  1  0  0  0  0
  4  8  1  0  0  0  0
  8  9  1  0  0  0  0
  9 10  2  0  0  0  0
 10  7  1  0  0  0  0
  9 11  1  0  0  0  0
 11 12  2  0  0  0  0
 12 13  1  0  0  0  0
 13 14  2  0  0  0  0
 14 10  1  0  0  0  0
 14 15  1  0  0  0  0
 15 16  2  0  0  0  0
 16 17  1  0  0  0  0
 17 18  1  0  0  0  0
 18 19  2  0  0  0  0
 19 20  1  0  0  0  0
 20 15  1  0  0  0  0
 17 21  2  0  0  0  0
 19 22  1  0  0  0  0
 22 23  1  0  0  0  0
 23 24  1  0  0  0  0
 24 25  1  0  0  0  0
 25 26  1  0  0  0  0
 26 27  1  0  0  0  0
 27 22  1  0  0  0  0
M  END
>  <Mol_ID> (37)
56

>  <Formula> (37)
C21H17NO3S2

>  <MolWeight> (37)
395.49458

>  <Cat> (37)
S1092

>  <Name> (37)
KU-55933 (ATM Kinase Inhibitor)

>  <Synonyms> (37)
N/A

>  <Target> (37)
ATM 

>  <Form> (37)
Free Base

>  <CAS> (37)
587871-26-9

>  <URL> (37)
http://www.selleckchem.com/products/KU-55933.html

$$$$
untitled.cdx
csChFnd80/05071909292D

 61 68  0  0  0  0  0  0  0  0999 V2000
    1.2082   20.0670    0.0000 C   0  0  0  0  0  0  0  0  0  0  0  0
    1.2082   18.6670    0.0000 C   0  0  0  0  0  0  0  0  0  0  0  0
    2.4207   17.9670    0.0000 C   0  0  0  0  0  0  0  0  0  0  0  0
    3.6331   18.6670    0.0000 C   0  0  0  0  0  0  0  0  0  0  0  0
    3.6331   20.0670    0.0000 C   0  0  0  0  0  0  0  0  0  0  0  0
    2.4207   20.7670    0.0000 C   0  0  0  0  0  0  0  0  0  0  0  0
    0.0000   17.9694    0.0000 F   0  0  0  0  0  0  0  0  0  0  0  0
    4.8413   17.9694    0.0000 F   0  0  0  0  0  0  0  0  0  0  0  0
    2.4207   16.5719    0.0000 N   0  0  0  0  0  0  0  0  0  0  0  0
    3.6289   15.8743    0.0000 C   0  0  0  0  0  0  0  0  0  0  0  0
    3.6289   14.4792    0.0000 C   0  0  0  0  0  0  0  0  0  0  0  0
    4.8371   16.5719    0.0000 O   0  0  0  0  0  0  0  0  0  0  0  0
    2.4165   13.7792    0.0000 C   0  0  0  0  0  0  0  0  0  0  0  0
    2.4165   12.3792    0.0000 C   0  0  0  0  0  0  0  0  0  0  0  0
    3.6289   11.6792    0.0000 C   0  0  0  0  0  0  0  0  0  0  0  0
    4.8413   12.3792    0.0000 C   0  0  0  0  0  0  0  0  0  0  0  0
    4.8413   13.7792    0.0000 C   0  0  0  0  0  0  0  0  0  0  0  0
    1.2082   14.4767    0.0000 O   0  0  0  0  0  0  0  0  0  0  0  0
    0.0000   13.7792    0.0000 C   0  0  0  0  0  0  0  0  0  0  0  0
    6.0496   11.6816    0.0000 C   0  0  0  0  0  0  0  0  0  0  0  0
    6.1959   10.2893    0.0000 C   0  0  0  0  0  0  0  0  0  0  0  0
    7.5653    9.9982    0.0000 N   0  0  0  0  0  0  0  0  0  0  0  0
    8.2653   11.2106    0.0000 C   0  0  0  0  0  0  0  0  0  0  0  0
    7.3285   12.2510    0.0000 N   0  0  0  0  0  0  0  0  0  0  0  0
    8.2653    8.7857    0.0000 C   0  0  0  0  0  0  0  0  0  0  0  0
    9.6653    8.7857    0.0000 C   0  0  0  0  0  0  0  0  0  0  0  0
   10.3653    9.9982    0.0000 C   0  0  0  0  0  0  0  0  0  0  0  0
    9.6653   11.2106    0.0000 C   0  0  0  0  0  0  0  0  0  0  0  0
    5.1591    9.3557    0.0000 C   0  0  0  0  0  0  0  0  0  0  0  0
    3.8276    9.7884    0.0000 C   0  0  0  0  0  0  0  0  0  0  0  0
    2.7872    8.8516    0.0000 C   0  0  0  0  0  0  0  0  0  0  0  0
    3.0783    7.4822    0.0000 N   0  0  0  0  0  0  0  0  0  0  0  0
    4.4098    7.0495    0.0000 C   0  0  0  0  0  0  0  0  0  0  0  0
    5.4502    7.9863    0.0000 N   0  0  0  0  0  0  0  0  0  0  0  0
    4.6998    5.6849    0.0000 N   0  0  0  0  0  0  0  0  0  0  0  0
    6.0267    5.2538    0.0000 C   0  0  0  0  0  0  0  0  0  0  0  0
    6.3178    3.8844    0.0000 C   0  0  0  0  0  0  0  0  0  0  0  0
    7.6493    3.4517    0.0000 C   0  0  0  0  0  0  0  0  0  0  0  0
    8.6897    4.3885    0.0000 C   0  0  0  0  0  0  0  0  0  0  0  0
    8.3986    5.7579    0.0000 C   0  0  0  0  0  0  0  0  0  0  0  0
    7.0671    6.1905    0.0000 C   0  0  0  0  0  0  0  0  0  0  0  0
    9.4354    6.6915    0.0000 C   0  0  0  0  0  0  0  0  0  0  0  0
   10.7622    6.2603    0.0000 C   0  0  0  0  0  0  0  0  0  0  0  0
    5.2810    2.9508    0.0000 O   0  0  0  0  0  0  0  0  0  0  0  0
    3.9541    3.3819    0.0000 C   0  0  0  0  0  0  0  0  0  0  0  0
   10.0165    3.9574    0.0000 N   0  0  0  0  0  0  0  0  0  0  0  0
   10.3076    2.5880    0.0000 C   0  0  0  0  0  0  0  0  0  0  0  0
   11.6391    2.1554    0.0000 C   0  0  0  0  0  0  0  0  0  0  0  0
   12.6795    3.0921    0.0000 C   0  0  0  0  0  0  0  0  0  0  0  0
   12.3884    4.4616    0.0000 C   0  0  0  0  0  0  0  0  0  0  0  0
   11.0569    4.8942    0.0000 C   0  0  0  0  0  0  0  0  0  0  0  0
   14.0063    2.6610    0.0000 N   0  0  0  0  0  0  0  0  0  0  0  0
   14.2974    1.2916    0.0000 C   0  0  0  0  0  0  0  0  0  0  0  0
   15.6289    0.8590    0.0000 C   0  0  0  0  0  0  0  0  0  0  0  0
   16.6693    1.7958    0.0000 N   0  0  0  0  0  0  0  0  0  0  0  0
   16.3782    3.1652    0.0000 C   0  0  0  0  0  0  0  0  0  0  0  0
   15.0467    3.5978    0.0000 C   0  0  0  0  0  0  0  0  0  0  0  0
   17.9961    1.3647    0.0000 S   0  0  0  0  0  0  0  0  0  0  0  0
   18.2862    0.0000    0.0000 C   0  0  0  0  0  0  0  0  0  0  0  0
   19.0329    2.2982    0.0000 O   0  0  0  0  0  0  0  0  0  0  0  0
   17.7061    2.7293    0.0000 O   0  0  0  0  0  0  0  0  0  0  0  0
  1  2  2  0  0  0  0
  2  3  1  0  0  0  0
  3  4  2  0  0  0  0
  4  5  1  0  0  0  0
  5  6  2  0  0  0  0
  6  1  1  0  0  0  0
  2  7  1  0  0  0  0
  4  8  1  0  0  0  0
  3  9  1  0  0  0  0
  9 10  1  0  0  0  0
 10 11  1  0  0  0  0
 10 12  2  0  0  0  0
 11 13  2  0  0  0  0
 13 14  1  0  0  0  0
 14 15  2  0  0  0  0
 15 16  1  0  0  0  0
 16 17  2  0  0  0  0
 17 11  1  0  0  0  0
 13 18  1  0  0  0  0
 18 19  1  0  0  0  0
 16 20  1  0  0  0  0
 20 21  2  0  0  0  0
 21 22  1  0  0  0  0
 22 23  1  0  0  0  0
 23 24  2  0  0  0  0
 24 20  1  0  0  0  0
 22 25  1  0  0  0  0
 25 26  2  0  0  0  0
 26 27  1  0  0  0  0
 27 28  2  0  0  0  0
 28 23  1  0  0  0  0
 21 29  1  0  0  0  0
 29 30  2  0  0  0  0
 30 31  1  0  0  0  0
 31 32  2  0  0  0  0
 32 33  1  0  0  0  0
 33 34  2  0  0  0  0
 34 29  1  0  0  0  0
 33 35  1  0  0  0  0
 35 36  1  0  0  0  0
 36 37  2  0  0  0  0
 37 38  1  0  0  0  0
 38 39  2  0  0  0  0
 39 40  1  0  0  0  0
 40 41  2  0  0  0  0
 41 36  1  0  0  0  0
 40 42  1  0  0  0  0
 42 43  1  0  0  0  0
 37 44  1  0  0  0  0
 44 45  1  0  0  0  0
 39 46  1  0  0  0  0
 46 47  1  0  0  0  0
 47 48  1  0  0  0  0
 48 49  1  0  0  0  0
 49 50  1  0  0  0  0
 50 51  1  0  0  0  0
 51 46  1  0  0  0  0
 49 52  1  0  0  0  0
 52 53  1  0  0  0  0
 53 54  1  0  0  0  0
 54 55  1  0  0  0  0
 55 56  1  0  0  0  0
 56 57  1  0  0  0  0
 57 52  1  0  0  0  0
 55 58  1  0  0  0  0
 58 59  1  0  0  0  0
 58 60  2  0  0  0  0
 58 61  2  0  0  0  0
M  END
>  <Mol_ID> (38)
57

>  <Formula> (38)
C44H47F2N9O5S

>  <MolWeight> (38)
851.9630864

>  <Cat> (38)
S1093

>  <Name> (38)
GSK1904529A

>  <Synonyms> (38)
N/A

>  <Target> (38)
IGF-1R

>  <Form> (38)
Free Base

>  <CAS> (38)
1089283-49-7

>  <URL> (38)
http://www.selleckchem.com/products/GSK1904529A.html

$$$$
untitled.cdx
csChFnd80/05071909292D

 28 32  0  0  0  0  0  0  0  0999 V2000
   13.4248    3.9552    0.0000 C   0  0  0  0  0  0  0  0  0  0  0  0
   14.4477    2.9994    0.0000 C   0  0  0  0  0  0  0  0  0  0  0  0
   15.7869    3.4073    0.0000 C   0  0  0  0  0  0  0  0  0  0  0  0
   16.1033    4.7711    0.0000 C   0  0  0  0  0  0  0  0  0  0  0  0
   15.0803    5.7269    0.0000 N   0  0  0  0  0  0  0  0  0  0  0  0
   13.7411    5.3190    0.0000 C   0  0  0  0  0  0  0  0  0  0  0  0
   12.7182    6.2749    0.0000 C   0  0  0  0  0  0  0  0  0  0  0  0
   11.3789    5.8669    0.0000 C   0  0  0  0  0  0  0  0  0  0  0  0
   11.0626    4.5031    0.0000 C   0  0  0  0  0  0  0  0  0  0  0  0
   12.0855    3.5473    0.0000 C   0  0  0  0  0  0  0  0  0  0  0  0
    9.7280    4.0966    0.0000 C   0  0  0  0  0  0  0  0  0  0  0  0
    9.4138    2.7423    0.0000 N   0  0  0  0  0  0  0  0  0  0  0  0
    8.1246    2.1966    0.0000 C   0  0  0  0  0  0  0  0  0  0  0  0
    8.2451    0.8018    0.0000 C   0  0  0  0  0  0  0  0  0  0  0  0
    9.6089    0.4855    0.0000 N   0  0  0  0  0  0  0  0  0  0  0  0
   10.3312    1.6848    0.0000 N   0  0  0  0  0  0  0  0  0  0  0  0
    6.8564    2.7896    0.0000 N   0  0  0  0  0  0  0  0  0  0  0  0
    5.7087    1.9878    0.0000 C   0  0  0  0  0  0  0  0  0  0  0  0
    5.8293    0.5930    0.0000 C   0  0  0  0  0  0  0  0  0  0  0  0
    7.0975    0.0000    0.0000 N   0  0  0  0  0  0  0  0  0  0  0  0
    4.4449    2.5787    0.0000 C   0  0  0  0  0  0  0  0  0  0  0  0
    4.1792    3.9533    0.0000 C   0  0  0  0  0  0  0  0  0  0  0  0
    2.7898    4.1253    0.0000 N   0  0  0  0  0  0  0  0  0  0  0  0
    2.1968    2.8571    0.0000 N   0  0  0  0  0  0  0  0  0  0  0  0
    3.2197    1.9012    0.0000 C   0  0  0  0  0  0  0  0  0  0  0  0
    2.1147    5.3462    0.0000 C   0  0  0  0  0  0  0  0  0  0  0  0
    0.7198    5.3720    0.0000 C   0  0  0  0  0  0  0  0  0  0  0  0
    0.0000    4.1769    0.0000 O   0  0  0  0  0  0  0  0  0  0  0  0
  1  2  2  0  0  0  0
  2  3  1  0  0  0  0
  3  4  2  0  0  0  0
  4  5  1  0  0  0  0
  5  6  2  0  0  0  0
  6  1  1  0  0  0  0
  6  7  1  0  0  0  0
  7  8  2  0  0  0  0
  8  9  1  0  0  0  0
  9 10  2  0  0  0  0
 10  1  1  0  0  0  0
  9 11  1  0  0  0  0
 11 12  1  0  0  0  0
 12 13  1  0  0  0  0
 13 14  2  0  0  0  0
 14 15  1  0  0  0  0
 15 16  2  0  0  0  0
 16 12  1  0  0  0  0
 13 17  1  0  0  0  0
 17 18  2  0  0  0  0
 18 19  1  0  0  0  0
 19 20  2  0  0  0  0
 20 14  1  0  0  0  0
 18 21  1  0  0  0  0
 21 22  2  0  0  0  0
 22 23  1  0  0  0  0
 23 24  1  0  0  0  0
 24 25  2  0  0  0  0
 25 21  1  0  0  0  0
 23 26  1  0  0  0  0
 26 27  1  0  0  0  0
 27 28  1  0  0  0  0
M  END
>  <Mol_ID> (39)
58

>  <Formula> (39)
C19H16N8O

>  <MolWeight> (39)
372.38334

>  <Cat> (39)
S1094

>  <Name> (39)
PF-04217903

>  <Synonyms> (39)
N/A

>  <Target> (39)
c-Met 

>  <Form> (39)
Free Base

>  <CAS> (39)
956905-27-4

>  <URL> (39)
http://www.selleckchem.com/products/PF-04217903.html

$$$$
1.cdx
csChFnd80/05071909292D

 34 38  0  0  0  0  0  0  0  0999 V2000
    1.2082    6.3628    0.0000 C   0  0  0  0  0  0  0  0  0  0  0  0
    1.2082    4.9628    0.0000 C   0  0  0  0  0  0  0  0  0  0  0  0
    2.4207    4.2628    0.0000 C   0  0  0  0  0  0  0  0  0  0  0  0
    3.6331    4.9628    0.0000 C   0  0  0  0  0  0  0  0  0  0  0  0
    3.6331    6.3628    0.0000 C   0  0  0  0  0  0  0  0  0  0  0  0
    2.4207    7.0628    0.0000 C   0  0  0  0  0  0  0  0  0  0  0  0
    4.7277    4.0900    0.0000 C   0  0  0  0  0  0  0  0  0  0  0  0
    6.0926    4.4015    0.0000 N   0  0  0  0  0  0  0  0  0  0  0  0
    6.7000    5.6628    0.0000 C   0  0  0  0  0  0  0  0  0  0  0  0
    6.0926    6.9242    0.0000 C   0  0  0  0  0  0  0  0  0  0  0  0
    4.7277    7.2357    0.0000 C   0  0  0  0  0  0  0  0  0  0  0  0
    0.0000    4.2653    0.0000 Cl  0  0  0  0  0  0  0  0  0  0  0  0
    4.4172    2.7298    0.0000 C   0  0  0  0  0  0  0  0  0  0  0  0
    3.0794    2.3171    0.0000 C   0  0  0  0  0  0  0  0  0  0  0  0
    2.7679    0.9522    0.0000 C   0  0  0  0  0  0  0  0  0  0  0  0
    3.7942    0.0000    0.0000 C   0  0  0  0  0  0  0  0  0  0  0  0
    5.1320    0.4127    0.0000 C   0  0  0  0  0  0  0  0  0  0  0  0
    5.4435    1.7776    0.0000 C   0  0  0  0  0  0  0  0  0  0  0  0
    2.0567    3.2661    0.0000 F   0  0  0  0  0  0  0  0  0  0  0  0
    6.7766    2.1888    0.0000 F   0  0  0  0  0  0  0  0  0  0  0  0
    7.0448    7.9505    0.0000 C   0  0  0  0  0  0  0  0  0  0  0  0
    6.6321    9.2883    0.0000 N   0  0  0  0  0  0  0  0  0  0  0  0
    5.2672    9.5998    0.0000 C   0  0  0  0  0  0  0  0  0  0  0  0
    4.3150    8.5735    0.0000 N   0  0  0  0  0  0  0  0  0  0  0  0
    4.8560   10.9330    0.0000 N   0  0  0  0  0  0  0  0  0  0  0  0
    5.8050   11.9557    0.0000 C   0  0  0  0  0  0  0  0  0  0  0  0
    7.1699   11.6441    0.0000 C   0  0  0  0  0  0  0  0  0  0  0  0
    8.1221   12.6704    0.0000 C   0  0  0  0  0  0  0  0  0  0  0  0
    7.7094   14.0082    0.0000 C   0  0  0  0  0  0  0  0  0  0  0  0
    6.3445   14.3197    0.0000 C   0  0  0  0  0  0  0  0  0  0  0  0
    5.3923   13.2935    0.0000 C   0  0  0  0  0  0  0  0  0  0  0  0
    8.6584   15.0309    0.0000 C   0  0  0  0  0  0  0  0  0  0  0  0
    8.2472   16.3641    0.0000 O   0  0  0  0  0  0  0  0  0  0  0  0
   10.0185   14.7205    0.0000 O   0  0  0  0  0  0  0  0  0  0  0  0
  1  2  2  0  0  0  0
  2  3  1  0  0  0  0
  3  4  2  0  0  0  0
  4  5  1  0  0  0  0
  5  6  2  0  0  0  0
  6  1  1  0  0  0  0
  4  7  1  0  0  0  0
  7  8  2  0  0  0  0
  8  9  1  0  0  0  0
  9 10  1  0  0  0  0
 10 11  2  0  0  0  0
 11  5  1  0  0  0  0
  2 12  1  0  0  0  0
  7 13  1  0  0  0  0
 13 14  2  0  0  0  0
 14 15  1  0  0  0  0
 15 16  2  0  0  0  0
 16 17  1  0  0  0  0
 17 18  2  0  0  0  0
 18 13  1  0  0  0  0
 14 19  1  0  0  0  0
 18 20  1  0  0  0  0
 10 21  1  0  0  0  0
 21 22  2  0  0  0  0
 22 23  1  0  0  0  0
 23 24  2  0  0  0  0
 24 11  1  0  0  0  0
 23 25  1  0  0  0  0
 25 26  1  0  0  0  0
 26 27  2  0  0  0  0
 27 28  1  0  0  0  0
 28 29  2  0  0  0  0
 29 30  1  0  0  0  0
 30 31  2  0  0  0  0
 31 26  1  0  0  0  0
 29 32  1  0  0  0  0
 32 33  2  0  0  0  0
 32 34  1  0  0  0  0
M  END
>  <Mol_ID> (40)
61

>  <Formula> (40)
C25H15ClF2N4O2

>  <MolWeight> (40)
476.8620064

>  <Cat> (40)
S1100

>  <Name> (40)
MLN8054

>  <Synonyms> (40)
N/A

>  <Target> (40)
Aurora Kinase

>  <Form> (40)
Free Base

>  <CAS> (40)
869363-13-3

>  <URL> (40)
http://www.selleckchem.com/products/MLN8054.html

$$$$
untitled.cdx
csChFnd80/05071909292D

 27 28  0  0  0  0  0  0  0  0999 V2000
   12.8537    6.2927    0.0000 C   0  0  0  0  0  0  0  0  0  0  0  0
   12.8537    4.8927    0.0000 C   0  0  0  0  0  0  0  0  0  0  0  0
   14.0661    4.1927    0.0000 C   0  0  0  0  0  0  0  0  0  0  0  0
   15.2785    4.8927    0.0000 C   0  0  0  0  0  0  0  0  0  0  0  0
   15.2785    6.2927    0.0000 C   0  0  0  0  0  0  0  0  0  0  0  0
   14.0661    6.9927    0.0000 C   0  0  0  0  0  0  0  0  0  0  0  0
   16.4910    4.1927    0.0000 C   0  0  0  0  0  0  0  0  0  0  0  0
   17.7034    4.8927    0.0000 N   0  0  0  0  0  0  0  0  0  0  0  0
   17.7034    6.2927    0.0000 N   0  0  0  0  0  0  0  0  0  0  0  0
   16.4910    6.9927    0.0000 C   0  0  0  0  0  0  0  0  0  0  0  0
   16.4910    8.3878    0.0000 N   0  0  0  0  0  0  0  0  0  0  0  0
   16.4910    2.7976    0.0000 C   0  0  0  0  0  0  0  0  0  0  0  0
   17.6992    2.1000    0.0000 C   0  0  0  0  0  0  0  0  0  0  0  0
   17.6992    0.7000    0.0000 C   0  0  0  0  0  0  0  0  0  0  0  0
   18.9116    0.0000    0.0000 C   0  0  0  0  0  0  0  0  0  0  0  0
   20.1241    0.7000    0.0000 N   0  0  0  0  0  0  0  0  0  0  0  0
   20.1241    2.1000    0.0000 C   0  0  0  0  0  0  0  0  0  0  0  0
   18.9116    2.8000    0.0000 C   0  0  0  0  0  0  0  0  0  0  0  0
   17.6992    9.0854    0.0000 C   0  0  0  0  0  0  0  0  0  0  0  0
   18.9116    8.3854    0.0000 C   0  0  0  0  0  0  0  0  0  0  0  0
   20.1241    9.0854    0.0000 C   0  0  0  0  0  0  0  0  0  0  0  0
   20.1241   10.4854    0.0000 C   0  0  0  0  0  0  0  0  0  0  0  0
   18.9116   11.1854    0.0000 C   0  0  0  0  0  0  0  0  0  0  0  0
   17.6992   10.4854    0.0000 C   0  0  0  0  0  0  0  0  0  0  0  0
   21.3323   11.1830    0.0000 Cl  0  0  0  0  0  0  0  0  0  0  0  0
   11.4921    5.5927    0.0000 Cl  0  0  0  0  0  0  0  0  0  0  0  0
   10.0921    5.5927    0.0000 Cl  0  0  0  0  0  0  0  0  0  0  0  0
  1  2  2  0  0  0  0
  2  3  1  0  0  0  0
  3  4  2  0  0  0  0
  4  5  1  0  0  0  0
  5  6  2  0  0  0  0
  6  1  1  0  0  0  0
  4  7  1  0  0  0  0
  7  8  2  0  0  0  0
  8  9  1  0  0  0  0
  9 10  2  0  0  0  0
 10  5  1  0  0  0  0
 10 11  1  0  0  0  0
  7 12  1  0  0  0  0
 12 13  1  0  0  0  0
 13 14  2  0  0  0  0
 14 15  1  0  0  0  0
 15 16  2  0  0  0  0
 16 17  1  0  0  0  0
 17 18  2  0  0  0  0
 18 13  1  0  0  0  0
 11 19  1  0  0  0  0
 19 20  2  0  0  0  0
 20 21  1  0  0  0  0
 21 22  2  0  0  0  0
 22 23  1  0  0  0  0
 23 24  2  0  0  0  0
 24 19  1  0  0  0  0
 22 25  1  0  0  0  0
M  END
>  <Mol_ID> (41)
62

>  <Formula> (41)
C20H17Cl3N4

>  <MolWeight> (41)
419.73478

>  <Cat> (41)
S1101

>  <Name> (41)
Vatalanib (PTK787) 2HCl

>  <Synonyms> (41)
ZK 222584 (cpg-79787) 2HCl

>  <Target> (41)
VEGFR, c-Kit, Flt

>  <Form> (41)
Dihydrochloride

>  <CAS> (41)
212141-51-0

>  <URL> (41)
http://www.selleckchem.com/products/Vatalanib,Dihydrochloride-Salt.html

$$$$
zm447439.cdx
csChFnd80/05071909292D

 38 42  0  0  0  0  0  0  0  0999 V2000
    0.0000    6.0496    0.0000 O   0  0  0  0  0  0  0  0  0  0  0  0
    0.7000    4.8371    0.0000 C   0  0  0  0  0  0  0  0  0  0  0  0
    2.1000    4.8371    0.0000 C   0  0  0  0  0  0  0  0  0  0  0  0
    2.8000    6.0496    0.0000 N   0  0  0  0  0  0  0  0  0  0  0  0
    2.1000    7.2620    0.0000 C   0  0  0  0  0  0  0  0  0  0  0  0
    0.7000    7.2620    0.0000 C   0  0  0  0  0  0  0  0  0  0  0  0
    4.1951    6.0496    0.0000 C   0  0  0  0  0  0  0  0  0  0  0  0
    4.8927    7.2578    0.0000 C   0  0  0  0  0  0  0  0  0  0  0  0
    6.2879    7.2578    0.0000 C   0  0  0  0  0  0  0  0  0  0  0  0
    6.9854    8.4660    0.0000 O   0  0  0  0  0  0  0  0  0  0  0  0
    8.3806    8.4660    0.0000 C   0  0  0  0  0  0  0  0  0  0  0  0
    9.0806    7.2536    0.0000 C   0  0  0  0  0  0  0  0  0  0  0  0
   10.4806    7.2536    0.0000 C   0  0  0  0  0  0  0  0  0  0  0  0
   11.1806    8.4660    0.0000 C   0  0  0  0  0  0  0  0  0  0  0  0
   10.4806    9.6784    0.0000 C   0  0  0  0  0  0  0  0  0  0  0  0
    9.0806    9.6784    0.0000 C   0  0  0  0  0  0  0  0  0  0  0  0
    8.3830    6.0453    0.0000 O   0  0  0  0  0  0  0  0  0  0  0  0
    9.0781    4.8413    0.0000 C   0  0  0  0  0  0  0  0  0  0  0  0
   12.5806    8.4660    0.0000 C   0  0  0  0  0  0  0  0  0  0  0  0
   13.2806    9.6784    0.0000 N   0  0  0  0  0  0  0  0  0  0  0  0
   12.5806   10.8909    0.0000 C   0  0  0  0  0  0  0  0  0  0  0  0
   11.1806   10.8909    0.0000 N   0  0  0  0  0  0  0  0  0  0  0  0
   13.2781    7.2578    0.0000 N   0  0  0  0  0  0  0  0  0  0  0  0
   12.5830    6.0538    0.0000 C   0  0  0  0  0  0  0  0  0  0  0  0
   11.1830    6.0538    0.0000 C   0  0  0  0  0  0  0  0  0  0  0  0
   10.4830    4.8413    0.0000 C   0  0  0  0  0  0  0  0  0  0  0  0
   11.1830    3.6289    0.0000 C   0  0  0  0  0  0  0  0  0  0  0  0
   12.5830    3.6289    0.0000 C   0  0  0  0  0  0  0  0  0  0  0  0
   13.2830    4.8413    0.0000 C   0  0  0  0  0  0  0  0  0  0  0  0
   10.4854    2.4207    0.0000 N   0  0  0  0  0  0  0  0  0  0  0  0
   11.1830    1.2124    0.0000 C   0  0  0  0  0  0  0  0  0  0  0  0
   10.4879    0.0084    0.0000 O   0  0  0  0  0  0  0  0  0  0  0  0
   12.5733    1.2124    0.0000 C   0  0  0  0  0  0  0  0  0  0  0  0
   13.2733    0.0000    0.0000 C   0  0  0  0  0  0  0  0  0  0  0  0
   14.6733    0.0000    0.0000 C   0  0  0  0  0  0  0  0  0  0  0  0
   15.3733    1.2124    0.0000 C   0  0  0  0  0  0  0  0  0  0  0  0
   14.6733    2.4249    0.0000 C   0  0  0  0  0  0  0  0  0  0  0  0
   13.2733    2.4249    0.0000 C   0  0  0  0  0  0  0  0  0  0  0  0
  1  2  1  0  0  0  0
  2  3  1  0  0  0  0
  3  4  1  0  0  0  0
  4  5  1  0  0  0  0
  5  6  1  0  0  0  0
  6  1  1  0  0  0  0
  4  7  1  0  0  0  0
  7  8  1  0  0  0  0
  8  9  1  0  0  0  0
  9 10  1  0  0  0  0
 10 11  1  0  0  0  0
 11 12  2  0  0  0  0
 12 13  1  0  0  0  0
 13 14  2  0  0  0  0
 14 15  1  0  0  0  0
 15 16  2  0  0  0  0
 16 11  1  0  0  0  0
 12 17  1  0  0  0  0
 17 18  1  0  0  0  0
 14 19  1  0  0  0  0
 19 20  2  0  0  0  0
 20 21  1  0  0  0  0
 21 22  2  0  0  0  0
 22 15  1  0  0  0  0
 19 23  1  0  0  0  0
 23 24  1  0  0  0  0
 24 25  2  0  0  0  0
 25 26  1  0  0  0  0
 26 27  2  0  0  0  0
 27 28  1  0  0  0  0
 28 29  2  0  0  0  0
 29 24  1  0  0  0  0
 27 30  1  0  0  0  0
 30 31  1  0  0  0  0
 31 32  2  0  0  0  0
 31 33  1  0  0  0  0
 33 34  2  0  0  0  0
 34 35  1  0  0  0  0
 35 36  2  0  0  0  0
 36 37  1  0  0  0  0
 37 38  2  0  0  0  0
 38 33  1  0  0  0  0
M  END
>  <Mol_ID> (42)
63

>  <Formula> (42)
C29H31N5O4

>  <MolWeight> (42)
513.58754

>  <Cat> (42)
S1103

>  <Name> (42)
ZM-447439

>  <Synonyms> (42)
N/A

>  <Target> (42)
Aurora Kinase

>  <Form> (42)
Free Base

>  <CAS> (42)
331771-20-1

>  <URL> (42)
http://www.selleckchem.com/products/ZM-447439.html

$$$$
GDC-0879.cdx
csChFnd80/05071909292D

 25 28  0  0  0  0  0  0  0  0999 V2000
   12.3879    4.8996    0.0000 C   0  0  0  0  0  0  0  0  0  0  0  0
   11.2552    5.7225    0.0000 C   0  0  0  0  0  0  0  0  0  0  0  0
   13.6668    5.4690    0.0000 O   0  0  0  0  0  0  0  0  0  0  0  0
    9.9763    5.1531    0.0000 N   0  0  0  0  0  0  0  0  0  0  0  0
    9.6852    3.7836    0.0000 N   0  0  0  0  0  0  0  0  0  0  0  0
    8.2929    3.6373    0.0000 C   0  0  0  0  0  0  0  0  0  0  0  0
    7.7234    4.9163    0.0000 C   0  0  0  0  0  0  0  0  0  0  0  0
    8.7638    5.8531    0.0000 C   0  0  0  0  0  0  0  0  0  0  0  0
    5.4929    1.2124    0.0000 C   0  0  0  0  0  0  0  0  0  0  0  0
    6.1929    2.4249    0.0000 C   0  0  0  0  0  0  0  0  0  0  0  0
    7.5929    2.4249    0.0000 C   0  0  0  0  0  0  0  0  0  0  0  0
    8.2929    1.2124    0.0000 C   0  0  0  0  0  0  0  0  0  0  0  0
    7.5929    0.0000    0.0000 C   0  0  0  0  0  0  0  0  0  0  0  0
    6.1929    0.0000    0.0000 N   0  0  0  0  0  0  0  0  0  0  0  0
    4.5520    6.8299    0.0000 C   0  0  0  0  0  0  0  0  0  0  0  0
    5.9214    6.5388    0.0000 C   0  0  0  0  0  0  0  0  0  0  0  0
    6.3540    5.2073    0.0000 C   0  0  0  0  0  0  0  0  0  0  0  0
    5.4173    4.1669    0.0000 C   0  0  0  0  0  0  0  0  0  0  0  0
    4.0479    4.4580    0.0000 C   0  0  0  0  0  0  0  0  0  0  0  0
    3.6152    5.7895    0.0000 C   0  0  0  0  0  0  0  0  0  0  0  0
    2.2152    5.7895    0.0000 C   0  0  0  0  0  0  0  0  0  0  0  0
    1.7826    4.4580    0.0000 C   0  0  0  0  0  0  0  0  0  0  0  0
    2.9152    3.6351    0.0000 C   0  0  0  0  0  0  0  0  0  0  0  0
    1.3923    6.9221    0.0000 N   0  0  0  0  0  0  0  0  0  0  0  0
    0.0000    6.7758    0.0000 O   0  0  0  0  0  0  0  0  0  0  0  0
  1  2  1  0  0  0  0
  1  3  1  0  0  0  0
  4  5  1  0  0  0  0
  5  6  2  0  0  0  0
  6  7  1  0  0  0  0
  7  8  2  0  0  0  0
  4  8  1  0  0  0  0
  9 10  2  0  0  0  0
 10 11  1  0  0  0  0
 11 12  2  0  0  0  0
 12 13  1  0  0  0  0
 13 14  2  0  0  0  0
  9 14  1  0  0  0  0
  6 11  1  0  0  0  0
 15 16  1  0  0  0  0
 16 17  2  0  0  0  0
 17 18  1  0  0  0  0
 18 19  2  0  0  0  0
 19 20  1  0  0  0  0
 15 20  2  0  0  0  0
  7 17  1  0  0  0  0
  2  4  1  0  0  0  0
 20 21  1  0  0  0  0
 21 22  1  0  0  0  0
 22 23  1  0  0  0  0
 23 19  1  0  0  0  0
 21 24  2  0  0  0  0
 24 25  1  0  0  0  0
M  END
>  <Mol_ID> (43)
65

>  <Formula> (43)
C19H18N4O2

>  <MolWeight> (43)
334.37182

>  <Cat> (43)
S1104

>  <Name> (43)
GDC-0879

>  <Synonyms> (43)
N/A

>  <Target> (43)
Raf

>  <Form> (43)
Free Base

>  <CAS> (43)
905281-76-7

>  <URL> (43)
http://www.selleckchem.com/products/GDC-0879.html

$$$$
untitled.cdx
csChFnd80/05071909292D

 23 26  0  0  0  0  0  0  0  0999 V2000
    0.0000    6.2951    0.0000 C   0  0  0  0  0  0  0  0  0  0  0  0
    0.0000    4.8951    0.0000 C   0  0  0  0  0  0  0  0  0  0  0  0
    1.2124    4.1951    0.0000 C   0  0  0  0  0  0  0  0  0  0  0  0
    2.4249    4.8951    0.0000 C   0  0  0  0  0  0  0  0  0  0  0  0
    2.4249    6.2951    0.0000 C   0  0  0  0  0  0  0  0  0  0  0  0
    1.2124    6.9951    0.0000 C   0  0  0  0  0  0  0  0  0  0  0  0
    3.6373    4.1951    0.0000 O   0  0  0  0  0  0  0  0  0  0  0  0
    4.8497    4.8951    0.0000 C   0  0  0  0  0  0  0  0  0  0  0  0
    4.8497    6.2951    0.0000 C   0  0  0  0  0  0  0  0  0  0  0  0
    3.6373    6.9951    0.0000 C   0  0  0  0  0  0  0  0  0  0  0  0
    1.2124    2.8000    0.0000 C   0  0  0  0  0  0  0  0  0  0  0  0
    0.0000    2.1000    0.0000 C   0  0  0  0  0  0  0  0  0  0  0  0
    0.0000    0.7000    0.0000 C   0  0  0  0  0  0  0  0  0  0  0  0
    1.2124    0.0000    0.0000 C   0  0  0  0  0  0  0  0  0  0  0  0
    2.4249    0.7000    0.0000 C   0  0  0  0  0  0  0  0  0  0  0  0
    2.4249    2.1000    0.0000 C   0  0  0  0  0  0  0  0  0  0  0  0
    3.6373    8.3903    0.0000 O   0  0  0  0  0  0  0  0  0  0  0  0
    6.0580    4.1976    0.0000 N   0  0  0  0  0  0  0  0  0  0  0  0
    6.0580    2.7976    0.0000 C   0  0  0  0  0  0  0  0  0  0  0  0
    7.2704    2.0976    0.0000 C   0  0  0  0  0  0  0  0  0  0  0  0
    8.4828    2.7976    0.0000 O   0  0  0  0  0  0  0  0  0  0  0  0
    8.4828    4.1976    0.0000 C   0  0  0  0  0  0  0  0  0  0  0  0
    7.2704    4.8976    0.0000 C   0  0  0  0  0  0  0  0  0  0  0  0
  1  2  2  0  0  0  0
  2  3  1  0  0  0  0
  3  4  2  0  0  0  0
  4  5  1  0  0  0  0
  5  6  2  0  0  0  0
  6  1  1  0  0  0  0
  4  7  1  0  0  0  0
  7  8  1  0  0  0  0
  8  9  2  0  0  0  0
  9 10  1  0  0  0  0
 10  5  1  0  0  0  0
  3 11  1  0  0  0  0
 11 12  2  0  0  0  0
 12 13  1  0  0  0  0
 13 14  2  0  0  0  0
 14 15  1  0  0  0  0
 15 16  2  0  0  0  0
 16 11  1  0  0  0  0
 10 17  2  0  0  0  0
  8 18  1  0  0  0  0
 18 19  1  0  0  0  0
 19 20  1  0  0  0  0
 20 21  1  0  0  0  0
 21 22  1  0  0  0  0
 22 23  1  0  0  0  0
 23 18  1  0  0  0  0
M  END
>  <Mol_ID> (44)
66

>  <Formula> (44)
C19H17NO3

>  <MolWeight> (44)
307.34318

>  <Cat> (44)
S1105

>  <Name> (44)
LY294002

>  <Synonyms> (44)
N/A

>  <Target> (44)
PI3K 

>  <Form> (44)
Free Base

>  <CAS> (44)
154447-36-6

>  <URL> (44)
http://www.selleckchem.com/products/LY294002.html

$$$$
OSU 03012.cdx
csChFnd80/05071909292D

 34 38  0  0  0  0  0  0  0  0999 V2000
    2.8530    2.1000    0.0000 C   0  0  0  0  0  0  0  0  0  0  0  0
    2.8530    0.7000    0.0000 C   0  0  0  0  0  0  0  0  0  0  0  0
    4.0655    0.0000    0.0000 C   0  0  0  0  0  0  0  0  0  0  0  0
    5.2779    0.7000    0.0000 C   0  0  0  0  0  0  0  0  0  0  0  0
    5.2779    2.1000    0.0000 C   0  0  0  0  0  0  0  0  0  0  0  0
    4.0655    2.8000    0.0000 C   0  0  0  0  0  0  0  0  0  0  0  0
    1.6406    2.8000    0.0000 C   0  0  0  0  0  0  0  0  0  0  0  0
    0.4281    2.1000    0.0000 C   0  0  0  0  0  0  0  0  0  0  0  0
    0.4281    0.7000    0.0000 C   0  0  0  0  0  0  0  0  0  0  0  0
    1.6406    0.0000    0.0000 C   0  0  0  0  0  0  0  0  0  0  0  0
    6.4903    2.8000    0.0000 C   0  0  0  0  0  0  0  0  0  0  0  0
    6.4903    4.2000    0.0000 C   0  0  0  0  0  0  0  0  0  0  0  0
    5.2779    4.9000    0.0000 C   0  0  0  0  0  0  0  0  0  0  0  0
    4.0655    4.2000    0.0000 C   0  0  0  0  0  0  0  0  0  0  0  0
    7.6986    4.8976    0.0000 C   0  0  0  0  0  0  0  0  0  0  0  0
    8.9775    4.3281    0.0000 C   0  0  0  0  0  0  0  0  0  0  0  0
    9.9143    5.3685    0.0000 C   0  0  0  0  0  0  0  0  0  0  0  0
    9.2143    6.5810    0.0000 N   0  0  0  0  0  0  0  0  0  0  0  0
    7.8449    6.2899    0.0000 N   0  0  0  0  0  0  0  0  0  0  0  0
   11.3018    5.2227    0.0000 C   0  0  0  0  0  0  0  0  0  0  0  0
   12.6941    5.0764    0.0000 F   0  0  0  0  0  0  0  0  0  0  0  0
   11.1555    3.8304    0.0000 F   0  0  0  0  0  0  0  0  0  0  0  0
   11.4481    6.6150    0.0000 F   0  0  0  0  0  0  0  0  0  0  0  0
    6.8081    7.2234    0.0000 C   0  0  0  0  0  0  0  0  0  0  0  0
    7.0992    8.5928    0.0000 C   0  0  0  0  0  0  0  0  0  0  0  0
    6.0588    9.5296    0.0000 C   0  0  0  0  0  0  0  0  0  0  0  0
    4.7273    9.0970    0.0000 C   0  0  0  0  0  0  0  0  0  0  0  0
    4.4362    7.7276    0.0000 C   0  0  0  0  0  0  0  0  0  0  0  0
    5.4766    6.7908    0.0000 C   0  0  0  0  0  0  0  0  0  0  0  0
    3.6905   10.0305    0.0000 N   0  0  0  0  0  0  0  0  0  0  0  0
    2.3636    9.5994    0.0000 C   0  0  0  0  0  0  0  0  0  0  0  0
    1.3269   10.5329    0.0000 C   0  0  0  0  0  0  0  0  0  0  0  0
    2.0736    8.2348    0.0000 O   0  0  0  0  0  0  0  0  0  0  0  0
    0.0000   10.1018    0.0000 N   0  0  0  0  0  0  0  0  0  0  0  0
  1  2  2  0  0  0  0
  2  3  1  0  0  0  0
  3  4  2  0  0  0  0
  4  5  1  0  0  0  0
  5  6  2  0  0  0  0
  6  1  1  0  0  0  0
  1  7  1  0  0  0  0
  7  8  2  0  0  0  0
  8  9  1  0  0  0  0
  9 10  2  0  0  0  0
 10  2  1  0  0  0  0
  5 11  1  0  0  0  0
 11 12  2  0  0  0  0
 12 13  1  0  0  0  0
 13 14  2  0  0  0  0
 14  6  1  0  0  0  0
 12 15  1  0  0  0  0
 15 16  2  0  0  0  0
 16 17  1  0  0  0  0
 17 18  2  0  0  0  0
 18 19  1  0  0  0  0
 19 15  1  0  0  0  0
 17 20  1  0  0  0  0
 19 24  1  0  0  0  0
 24 25  2  0  0  0  0
 25 26  1  0  0  0  0
 26 27  2  0  0  0  0
 27 28  1  0  0  0  0
 28 29  2  0  0  0  0
 29 24  1  0  0  0  0
 27 30  1  0  0  0  0
 30 31  1  0  0  0  0
 31 32  1  0  0  0  0
 31 33  2  0  0  0  0
 32 34  1  0  0  0  0
 20 21  1  0  0  0  0
 20 22  1  0  0  0  0
 20 23  1  0  0  0  0
M  END
>  <Mol_ID> (45)
67

>  <Formula> (45)
C26H19F3N4O

>  <MolWeight> (45)
460.4504696

>  <Cat> (45)
S1106

>  <Name> (45)
OSU-03012 (AR-12)

>  <Synonyms> (45)
AR-12 

>  <Target> (45)
PDK-1

>  <Form> (45)
Free Base

>  <CAS> (45)
742112-33-0

>  <URL> (45)
http://www.selleckchem.com/products/OSU-03012.html

$$$$
U0126-EtOH.cdx
csChFnd80/05071909292D

 29 29  0  0  0  0  0  0  0  0999 V2000
    4.9450    8.7937    0.0000 C   0  0  0  0  0  0  0  0  0  0  0  0
    3.7433    9.5120    0.0000 C   0  0  0  0  0  0  0  0  0  0  0  0
    2.5204    8.8305    0.0000 C   0  0  0  0  0  0  0  0  0  0  0  0
    2.4992    7.4307    0.0000 C   0  0  0  0  0  0  0  0  0  0  0  0
    3.7008    6.7124    0.0000 C   0  0  0  0  0  0  0  0  0  0  0  0
    4.9237    7.3939    0.0000 C   0  0  0  0  0  0  0  0  0  0  0  0
    1.2550    5.3494    0.0000 N   0  0  0  0  0  0  0  0  0  0  0  0
    2.4566    4.6310    0.0000 C   0  0  0  0  0  0  0  0  0  0  0  0
    3.6796    5.3125    0.0000 S   0  0  0  0  0  0  0  0  0  0  0  0
    2.4354    3.2312    0.0000 C   0  0  0  0  0  0  0  0  0  0  0  0
    3.6370    2.5129    0.0000 C   0  0  0  0  0  0  0  0  0  0  0  0
    1.2124    2.5497    0.0000 C   0  0  0  0  0  0  0  0  0  0  0  0
    0.0000    1.8497    0.0000 N   0  0  0  0  0  0  0  0  0  0  0  0
    3.0195    1.2564    0.0000 C   0  0  0  0  0  0  0  0  0  0  0  0
    2.4019    0.0000    0.0000 N   0  0  0  0  0  0  0  0  0  0  0  0
    1.2762    6.7492    0.0000 N   0  0  0  0  0  0  0  0  0  0  0  0
    5.0419    2.5129    0.0000 C   0  0  0  0  0  0  0  0  0  0  0  0
    6.2586    3.2153    0.0000 S   0  0  0  0  0  0  0  0  0  0  0  0
    7.4710    2.5153    0.0000 C   0  0  0  0  0  0  0  0  0  0  0  0
    7.4710    1.1104    0.0000 C   0  0  0  0  0  0  0  0  0  0  0  0
    8.6877    0.4080    0.0000 C   0  0  0  0  0  0  0  0  0  0  0  0
    9.9043    1.1104    0.0000 C   0  0  0  0  0  0  0  0  0  0  0  0
    9.9043    2.5153    0.0000 C   0  0  0  0  0  0  0  0  0  0  0  0
    8.6877    3.2177    0.0000 C   0  0  0  0  0  0  0  0  0  0  0  0
    8.6877    4.6177    0.0000 N   0  0  0  0  0  0  0  0  0  0  0  0
    5.7443    1.2962    0.0000 N   0  0  0  0  0  0  0  0  0  0  0  0
   13.0088    5.8092    0.0000 C   0  0  0  0  0  0  0  0  0  0  0  0
   11.7964    6.5092    0.0000 C   0  0  0  0  0  0  0  0  0  0  0  0
   10.5840    5.8092    0.0000 O   0  0  0  0  0  0  0  0  0  0  0  0
  1  2  2  0  0  0  0
  2  3  1  0  0  0  0
  3  4  2  0  0  0  0
  4  5  1  0  0  0  0
  5  6  2  0  0  0  0
  6  1  1  0  0  0  0
  7  8  1  0  0  0  0
  8  9  1  0  0  0  0
  9  5  1  0  0  0  0
  8 10  2  0  0  0  0
 10 11  1  0  0  0  0
 10 12  1  0  0  0  0
 11 14  1  0  0  0  0
  4 16  1  0  0  0  0
 11 17  2  0  0  0  0
 17 18  1  0  0  0  0
 18 19  1  0  0  0  0
 19 20  2  0  0  0  0
 20 21  1  0  0  0  0
 21 22  2  0  0  0  0
 22 23  1  0  0  0  0
 23 24  2  0  0  0  0
 24 19  1  0  0  0  0
 24 25  1  0  0  0  0
 17 26  1  0  0  0  0
 12 13  3  0  0  0  0
 14 15  3  0  0  0  0
 27 28  1  0  0  0  0
 28 29  1  0  0  0  0
M  END
>  <Mol_ID> (46)
68

>  <Formula> (46)
C20H22N6OS2

>  <MolWeight> (46)
426.55828

>  <Cat> (46)
S1102

>  <Name> (46)
U0126-EtOH

>  <Synonyms> (46)
N/A

>  <Target> (46)
MEK

>  <Form> (46)
Ethanolate

>  <CAS> (46)
1173097-76-1

>  <URL> (46)
http://www.selleckchem.com/products/U0126.html

$$$$
untitled.cdx
csChFnd80/05071909292D

 35 39  0  0  0  0  0  0  0  0999 V2000
   15.2285    7.3863    0.0000 C   0  0  0  0  0  0  0  0  0  0  0  0
   15.2285    5.9863    0.0000 C   0  0  0  0  0  0  0  0  0  0  0  0
   16.4410    5.2863    0.0000 C   0  0  0  0  0  0  0  0  0  0  0  0
   17.6534    5.9863    0.0000 C   0  0  0  0  0  0  0  0  0  0  0  0
   17.6534    7.3863    0.0000 C   0  0  0  0  0  0  0  0  0  0  0  0
   16.4410    8.0863    0.0000 C   0  0  0  0  0  0  0  0  0  0  0  0
   14.0203    8.0839    0.0000 C   0  0  2  0  0  0  0  0  0  0  0  0
   12.8121    7.3863    0.0000 C   0  0  0  0  0  0  0  0  0  0  0  0
   14.0203    9.4790    0.0000 O   0  0  0  0  0  0  0  0  0  0  0  0
   12.8121   10.1766    0.0000 C   0  0  0  0  0  0  0  0  0  0  0  0
   11.6039    8.0839    0.0000 N   0  0  0  0  0  0  0  0  0  0  0  0
   12.8121    5.9912    0.0000 O   0  0  0  0  0  0  0  0  0  0  0  0
   11.4575    9.4762    0.0000 C   0  0  0  0  0  0  0  0  0  0  0  0
   10.0881    9.7673    0.0000 C   0  0  0  0  0  0  0  0  0  0  0  0
    9.3881    8.5548    0.0000 C   0  0  0  0  0  0  0  0  0  0  0  0
   10.3249    7.5144    0.0000 C   0  0  0  0  0  0  0  0  0  0  0  0
    9.1513   10.8077    0.0000 N   0  0  0  0  0  0  0  0  0  0  0  0
    7.8724   10.2382    0.0000 N   0  0  0  0  0  0  0  0  0  0  0  0
    8.0187    8.8459    0.0000 C   0  0  0  0  0  0  0  0  0  0  0  0
    6.9819    7.9124    0.0000 N   0  0  0  0  0  0  0  0  0  0  0  0
    7.2720    6.5477    0.0000 C   0  0  0  0  0  0  0  0  0  0  0  0
    8.5988    6.1166    0.0000 O   0  0  0  0  0  0  0  0  0  0  0  0
    6.2352    5.6142    0.0000 C   0  0  0  0  0  0  0  0  0  0  0  0
    4.9037    6.0468    0.0000 C   0  0  0  0  0  0  0  0  0  0  0  0
    3.8633    5.1100    0.0000 C   0  0  0  0  0  0  0  0  0  0  0  0
    4.1544    3.7406    0.0000 C   0  0  0  0  0  0  0  0  0  0  0  0
    5.4859    3.3080    0.0000 C   0  0  0  0  0  0  0  0  0  0  0  0
    6.5263    4.2448    0.0000 C   0  0  0  0  0  0  0  0  0  0  0  0
    3.1176    2.8071    0.0000 N   0  0  0  0  0  0  0  0  0  0  0  0
    1.7861    3.2397    0.0000 C   0  0  0  0  0  0  0  0  0  0  0  0
    0.7457    2.3029    0.0000 C   0  0  0  0  0  0  0  0  0  0  0  0
    1.0368    0.9335    0.0000 N   0  0  0  0  0  0  0  0  0  0  0  0
    2.3683    0.5009    0.0000 C   0  0  0  0  0  0  0  0  0  0  0  0
    3.4087    1.4377    0.0000 C   0  0  0  0  0  0  0  0  0  0  0  0
    0.0000    0.0000    0.0000 C   0  0  0  0  0  0  0  0  0  0  0  0
  1  2  2  0  0  0  0
  2  3  1  0  0  0  0
  3  4  2  0  0  0  0
  4  5  1  0  0  0  0
  5  6  2  0  0  0  0
  6  1  1  0  0  0  0
  1  7  1  0  0  0  0
  7  8  1  0  0  0  0
  7  9  1  6  0  0  0
  9 10  1  0  0  0  0
  8 11  1  0  0  0  0
  8 12  2  0  0  0  0
 11 13  1  0  0  0  0
 13 14  1  0  0  0  0
 14 15  2  0  0  0  0
 15 16  1  0  0  0  0
 16 11  1  0  0  0  0
 14 17  1  0  0  0  0
 17 18  1  0  0  0  0
 18 19  2  0  0  0  0
 19 15  1  0  0  0  0
 19 20  1  0  0  0  0
 20 21  1  0  0  0  0
 21 22  2  0  0  0  0
 21 23  1  0  0  0  0
 23 24  2  0  0  0  0
 24 25  1  0  0  0  0
 25 26  2  0  0  0  0
 26 27  1  0  0  0  0
 27 28  2  0  0  0  0
 28 23  1  0  0  0  0
 26 29  1  0  0  0  0
 29 30  1  0  0  0  0
 30 31  1  0  0  0  0
 31 32  1  0  0  0  0
 32 33  1  0  0  0  0
 33 34  1  0  0  0  0
 34 29  1  0  0  0  0
 32 35  1  0  0  0  0
M  END
>  <Mol_ID> (47)
69

>  <Formula> (47)
C26H30N6O3

>  <MolWeight> (47)
474.5548

>  <Cat> (47)
S1107

>  <Name> (47)
Danusertib (PHA-739358)

>  <Synonyms> (47)
N/A 

>  <Target> (47)
Aurora Kinase, FGFR, Bcr-Abl, c-RET, Src

>  <Form> (47)
Free Base

>  <CAS> (47)
827318-97-8

>  <URL> (47)
http://www.selleckchem.com/products/PHA-739358(Danusertib).html

$$$$
untitled.cdx
csChFnd80/05071909292D

 38 42  0  0  0  0  0  0  0  0999 V2000
    7.2578    5.6403    0.0000 C   0  0  0  0  0  0  0  0  0  0  0  0
    7.2578    4.2403    0.0000 C   0  0  0  0  0  0  0  0  0  0  0  0
    8.4702    3.5403    0.0000 C   0  0  0  0  0  0  0  0  0  0  0  0
    9.6827    4.2403    0.0000 C   0  0  0  0  0  0  0  0  0  0  0  0
    9.6827    5.6403    0.0000 C   0  0  0  0  0  0  0  0  0  0  0  0
    8.4702    6.3403    0.0000 C   0  0  0  0  0  0  0  0  0  0  0  0
   10.8909    6.3379    0.0000 O   0  0  0  0  0  0  0  0  0  0  0  0
   12.0991    5.6403    0.0000 N   0  0  0  0  0  0  0  0  0  0  0  0
   10.8909    3.5427    0.0000 N   0  0  0  0  0  0  0  0  0  0  0  0
    6.0496    6.3379    0.0000 C   0  0  0  0  0  0  0  0  0  0  0  0
    4.8413    5.6403    0.0000 N   0  0  0  0  0  0  0  0  0  0  0  0
    6.0496    7.7330    0.0000 O   0  0  0  0  0  0  0  0  0  0  0  0
    3.6331    6.3379    0.0000 C   0  0  0  0  0  0  0  0  0  0  0  0
    3.6331    7.7379    0.0000 C   0  0  0  0  0  0  0  0  0  0  0  0
    2.4207    8.4379    0.0000 C   0  0  0  0  0  0  0  0  0  0  0  0
    1.2082    7.7379    0.0000 N   0  0  0  0  0  0  0  0  0  0  0  0
    1.2082    6.3379    0.0000 C   0  0  0  0  0  0  0  0  0  0  0  0
    2.4207    5.6379    0.0000 C   0  0  0  0  0  0  0  0  0  0  0  0
   12.0991    4.2403    0.0000 C   0  0  0  0  0  0  0  0  0  0  0  0
   10.8909    7.7379    0.0000 C   0  0  0  0  0  0  0  0  0  0  0  0
   13.3116    3.5403    0.0000 N   0  0  0  0  0  0  0  0  0  0  0  0
   14.5240    4.2403    0.0000 C   0  0  0  0  0  0  0  0  0  0  0  0
   14.5240    5.6403    0.0000 C   0  0  0  0  0  0  0  0  0  0  0  0
   13.3116    6.3403    0.0000 C   0  0  0  0  0  0  0  0  0  0  0  0
   15.7322    6.3379    0.0000 N   0  0  0  0  0  0  0  0  0  0  0  0
   16.9404    5.6403    0.0000 C   0  0  0  0  0  0  0  0  0  0  0  0
   15.7322    7.7330    0.0000 C   0  0  0  0  0  0  0  0  0  0  0  0
   18.1487    6.3379    0.0000 O   0  0  0  0  0  0  0  0  0  0  0  0
   16.9404    4.2452    0.0000 C   0  0  1  0  0  0  0  0  0  0  0  0
   18.1487    3.5476    0.0000 C   0  0  0  0  0  0  0  0  0  0  0  0
   15.7322    3.5476    0.0000 N   0  0  0  0  0  0  0  0  0  0  0  0
   15.7343    2.1525    0.0000 C   0  0  0  0  0  0  0  0  0  0  0  0
   14.5995    1.3327    0.0000 C   0  0  0  0  0  0  0  0  0  0  0  0
   15.0284    0.0000    0.0000 C   0  0  0  0  0  0  0  0  0  0  0  0
   16.4284    0.0000    0.0000 C   0  0  0  0  0  0  0  0  0  0  0  0
   16.8647    1.3327    0.0000 C   0  0  0  0  0  0  0  0  0  0  0  0
   19.3569    4.2452    0.0000 C   0  0  0  0  0  0  0  0  0  0  0  0
    0.0000    8.4355    0.0000 C   0  0  0  0  0  0  0  0  0  0  0  0
  1  2  2  0  0  0  0
  2  3  1  0  0  0  0
  3  4  2  0  0  0  0
  4  5  1  0  0  0  0
  5  6  2  0  0  0  0
  6  1  1  0  0  0  0
  5  7  1  0  0  0  0
  4  9  1  0  0  0  0
  1 10  1  0  0  0  0
 10 11  1  0  0  0  0
 10 12  2  0  0  0  0
 11 13  1  0  0  0  0
 13 14  1  0  0  0  0
 14 15  1  0  0  0  0
 15 16  1  0  0  0  0
 16 17  1  0  0  0  0
 17 18  1  0  0  0  0
 18 13  1  0  0  0  0
  9 19  1  0  0  0  0
 19  8  2  0  0  0  0
  7 20  1  0  0  0  0
 19 21  1  0  0  0  0
 21 22  2  0  0  0  0
 22 23  1  0  0  0  0
 23 24  2  0  0  0  0
 24  8  1  0  0  0  0
 23 25  1  0  0  0  0
 25 26  1  0  0  0  0
 25 27  1  0  0  0  0
 26 28  2  0  0  0  0
 26 29  1  0  0  0  0
 29 30  1  1  0  0  0
 29 31  1  0  0  0  0
 22 31  1  0  0  0  0
 31 32  1  0  0  0  0
 32 33  1  0  0  0  0
 33 34  1  0  0  0  0
 34 35  1  0  0  0  0
 35 36  1  0  0  0  0
 36 32  1  0  0  0  0
 30 37  1  0  0  0  0
 16 38  1  0  0  0  0
M  END
>  <Mol_ID> (48)
70

>  <Formula> (48)
C28H39N7O3

>  <MolWeight> (48)
521.65436

>  <Cat> (48)
S1109

>  <Name> (48)
BI 2536

>  <Synonyms> (48)
N/A

>  <Target> (48)
PLK

>  <Form> (48)
Free Base

>  <CAS> (48)
755038-02-9

>  <URL> (48)
http://www.selleckchem.com/products/BI-2536.html

$$$$
1.cdx
csChFnd80/05071909292D

 46 51  0  0  0  0  0  0  0  0999 V2000
   22.9647    8.3878    0.0000 C   0  0  0  0  0  0  0  0  0  0  0  0
   22.9647    6.9878    0.0000 C   0  0  0  0  0  0  0  0  0  0  0  0
   24.1772    6.2878    0.0000 C   0  0  0  0  0  0  0  0  0  0  0  0
   25.3896    6.9878    0.0000 C   0  0  0  0  0  0  0  0  0  0  0  0
   25.3896    8.3878    0.0000 C   0  0  0  0  0  0  0  0  0  0  0  0
   24.1772    9.0878    0.0000 C   0  0  0  0  0  0  0  0  0  0  0  0
   26.5978    6.2903    0.0000 F   0  0  0  0  0  0  0  0  0  0  0  0
   21.7565    9.0854    0.0000 N   0  0  0  0  0  0  0  0  0  0  0  0
   20.5483    8.3878    0.0000 C   0  0  0  0  0  0  0  0  0  0  0  0
   19.3400    9.0854    0.0000 C   0  0  0  0  0  0  0  0  0  0  0  0
   20.5483    6.9927    0.0000 O   0  0  0  0  0  0  0  0  0  0  0  0
   18.1318    8.3879    0.0000 C   0  0  0  0  0  0  0  0  0  0  0  0
   20.0400   10.2979    0.0000 C   0  0  0  0  0  0  0  0  0  0  0  0
   18.6400   10.2979    0.0000 C   0  0  0  0  0  0  0  0  0  0  0  0
   16.9278    9.0830    0.0000 N   0  0  0  0  0  0  0  0  0  0  0  0
   18.1318    6.9976    0.0000 O   0  0  0  0  0  0  0  0  0  0  0  0
   15.7238    8.3879    0.0000 C   0  0  0  0  0  0  0  0  0  0  0  0
   14.5113    9.0879    0.0000 C   0  0  0  0  0  0  0  0  0  0  0  0
   13.2989    8.3879    0.0000 C   0  0  0  0  0  0  0  0  0  0  0  0
   13.2989    6.9879    0.0000 C   0  0  0  0  0  0  0  0  0  0  0  0
   14.5113    6.2879    0.0000 C   0  0  0  0  0  0  0  0  0  0  0  0
   15.7238    6.9879    0.0000 C   0  0  0  0  0  0  0  0  0  0  0  0
   12.0907    9.0854    0.0000 F   0  0  0  0  0  0  0  0  0  0  0  0
   12.0907    6.2903    0.0000 O   0  0  0  0  0  0  0  0  0  0  0  0
   12.0907    4.8951    0.0000 C   0  0  0  0  0  0  0  0  0  0  0  0
   10.8782    4.1951    0.0000 C   0  0  0  0  0  0  0  0  0  0  0  0
   10.8782    2.7951    0.0000 C   0  0  0  0  0  0  0  0  0  0  0  0
   12.0907    2.0951    0.0000 N   0  0  0  0  0  0  0  0  0  0  0  0
   13.3031    2.7951    0.0000 C   0  0  0  0  0  0  0  0  0  0  0  0
   13.3031    4.1951    0.0000 C   0  0  0  0  0  0  0  0  0  0  0  0
    9.6658    4.8951    0.0000 C   0  0  0  0  0  0  0  0  0  0  0  0
    8.4534    4.1951    0.0000 C   0  0  0  0  0  0  0  0  0  0  0  0
    8.4534    2.7951    0.0000 C   0  0  0  0  0  0  0  0  0  0  0  0
    9.6658    2.0951    0.0000 C   0  0  0  0  0  0  0  0  0  0  0  0
    7.2451    4.8927    0.0000 O   0  0  0  0  0  0  0  0  0  0  0  0
    7.2451    6.2830    0.0000 C   0  0  0  0  0  0  0  0  0  0  0  0
    7.2451    2.0976    0.0000 O   0  0  0  0  0  0  0  0  0  0  0  0
    6.0369    2.7951    0.0000 C   0  0  0  0  0  0  0  0  0  0  0  0
    4.8287    2.0976    0.0000 C   0  0  0  0  0  0  0  0  0  0  0  0
    3.6247    2.7927    0.0000 C   0  0  0  0  0  0  0  0  0  0  0  0
    2.4249    2.1000    0.0000 N   0  0  0  0  0  0  0  0  0  0  0  0
    1.2124    2.8000    0.0000 C   0  0  0  0  0  0  0  0  0  0  0  0
    0.0000    2.1000    0.0000 C   0  0  0  0  0  0  0  0  0  0  0  0
    0.0000    0.7000    0.0000 O   0  0  0  0  0  0  0  0  0  0  0  0
    1.2124    0.0000    0.0000 C   0  0  0  0  0  0  0  0  0  0  0  0
    2.4249    0.7000    0.0000 C   0  0  0  0  0  0  0  0  0  0  0  0
  1  2  2  0  0  0  0
  2  3  1  0  0  0  0
  3  4  2  0  0  0  0
  4  5  1  0  0  0  0
  5  6  2  0  0  0  0
  6  1  1  0  0  0  0
  4  7  1  0  0  0  0
  1  8  1  0  0  0  0
  8  9  1  0  0  0  0
  9 10  1  0  0  0  0
  9 11  2  0  0  0  0
 10 12  1  0  0  0  0
 10 13  1  0  0  0  0
 13 14  1  0  0  0  0
 14 10  1  0  0  0  0
 12 15  1  0  0  0  0
 12 16  2  0  0  0  0
 15 17  1  0  0  0  0
 17 18  2  0  0  0  0
 18 19  1  0  0  0  0
 19 20  2  0  0  0  0
 20 21  1  0  0  0  0
 21 22  2  0  0  0  0
 22 17  1  0  0  0  0
 19 23  1  0  0  0  0
 20 24  1  0  0  0  0
 24 25  1  0  0  0  0
 25 26  1  0  0  0  0
 26 27  2  0  0  0  0
 27 28  1  0  0  0  0
 28 29  2  0  0  0  0
 29 30  1  0  0  0  0
 30 25  2  0  0  0  0
 26 31  1  0  0  0  0
 31 32  2  0  0  0  0
 32 33  1  0  0  0  0
 33 34  2  0  0  0  0
 34 27  1  0  0  0  0
 32 35  1  0  0  0  0
 35 36  1  0  0  0  0
 33 37  1  0  0  0  0
 37 38  1  0  0  0  0
 38 39  1  0  0  0  0
 39 40  1  0  0  0  0
 40 41  1  0  0  0  0
 41 42  1  0  0  0  0
 42 43  1  0  0  0  0
 43 44  1  0  0  0  0
 44 45  1  0  0  0  0
 45 46  1  0  0  0  0
 46 41  1  0  0  0  0
M  END
>  <Mol_ID> (49)
72

>  <Formula> (49)
C34H34F2N4O6

>  <MolWeight> (49)
632.6537664

>  <Cat> (49)
S1111

>  <Name> (49)
Foretinib (GSK1363089, XL880)

>  <Synonyms> (49)
N/A 

>  <Target> (49)
c-Met, VEGFR

>  <Form> (49)
Free Base

>  <CAS> (49)
849217-64-7

>  <URL> (49)
http://www.selleckchem.com/products/XL880(GSK1363089,EXEL-2880).html

$$$$
untitled.cdx
csChFnd80/05071909292D

 28 32  0  0  0  0  0  0  0  0999 V2000
    0.0000    6.1579    0.0000 N   0  0  0  0  0  0  0  0  0  0  0  0
    0.0000    4.7579    0.0000 C   0  0  0  0  0  0  0  0  0  0  0  0
    1.2124    4.0579    0.0000 C   0  0  0  0  0  0  0  0  0  0  0  0
    2.4249    4.7579    0.0000 C   0  0  0  0  0  0  0  0  0  0  0  0
    2.4249    6.1579    0.0000 C   0  0  0  0  0  0  0  0  0  0  0  0
    1.2124    6.8579    0.0000 C   0  0  0  0  0  0  0  0  0  0  0  0
    3.6373    6.8579    0.0000 C   0  0  0  0  0  0  0  0  0  0  0  0
    3.6373    8.2579    0.0000 C   0  0  0  0  0  0  0  0  0  0  0  0
    2.4249    8.9579    0.0000 C   0  0  0  0  0  0  0  0  0  0  0  0
    1.2124    8.2579    0.0000 C   0  0  0  0  0  0  0  0  0  0  0  0
    4.8455    8.9555    0.0000 C   0  0  0  0  0  0  0  0  0  0  0  0
    6.0538    8.2579    0.0000 C   0  0  0  0  0  0  0  0  0  0  0  0
    4.8455   10.3506    0.0000 F   0  0  0  0  0  0  0  0  0  0  0  0
    6.0538    9.6530    0.0000 F   0  0  0  0  0  0  0  0  0  0  0  0
    6.2001    6.8656    0.0000 N   0  0  0  0  0  0  0  0  0  0  0  0
    7.5695    6.5745    0.0000 C   0  0  0  0  0  0  0  0  0  0  0  0
    8.2695    7.7869    0.0000 N   0  0  0  0  0  0  0  0  0  0  0  0
    7.3327    8.8273    0.0000 N   0  0  0  0  0  0  0  0  0  0  0  0
    5.2633    5.8252    0.0000 N   0  0  0  0  0  0  0  0  0  0  0  0
    5.6959    4.4937    0.0000 C   0  0  0  0  0  0  0  0  0  0  0  0
    7.0653    4.2026    0.0000 C   0  0  0  0  0  0  0  0  0  0  0  0
    8.0021    5.2430    0.0000 C   0  0  0  0  0  0  0  0  0  0  0  0
    4.7624    3.4569    0.0000 C   0  0  0  0  0  0  0  0  0  0  0  0
    3.3701    3.6032    0.0000 C   0  0  0  0  0  0  0  0  0  0  0  0
    2.8006    2.3243    0.0000 N   0  0  0  0  0  0  0  0  0  0  0  0
    3.8411    1.3875    0.0000 N   0  0  0  0  0  0  0  0  0  0  0  0
    5.0535    2.0875    0.0000 C   0  0  0  0  0  0  0  0  0  0  0  0
    3.6952    0.0000    0.0000 C   0  0  0  0  0  0  0  0  0  0  0  0
  1  2  2  0  0  0  0
  2  3  1  0  0  0  0
  3  4  2  0  0  0  0
  4  5  1  0  0  0  0
  5  6  2  0  0  0  0
  6  1  1  0  0  0  0
  5  7  1  0  0  0  0
  7  8  2  0  0  0  0
  8  9  1  0  0  0  0
  9 10  2  0  0  0  0
 10  6  1  0  0  0  0
  8 11  1  0  0  0  0
 11 12  1  0  0  0  0
 11 13  1  0  0  0  0
 11 14  1  0  0  0  0
 12 15  1  0  0  0  0
 15 16  1  0  0  0  0
 16 17  2  0  0  0  0
 17 18  1  0  0  0  0
 18 12  2  0  0  0  0
 15 19  1  0  0  0  0
 19 20  2  0  0  0  0
 20 21  1  0  0  0  0
 21 22  2  0  0  0  0
 22 16  1  0  0  0  0
 20 23  1  0  0  0  0
 23 24  1  0  0  0  0
 24 25  2  0  0  0  0
 25 26  1  0  0  0  0
 26 27  1  0  0  0  0
 27 23  2  0  0  0  0
 26 28  1  0  0  0  0
M  END
>  <Mol_ID> (50)
73

>  <Formula> (50)
C19H13F2N7

>  <MolWeight> (50)
377.3502264

>  <Cat> (50)
S1114

>  <Name> (50)
JNJ-38877605

>  <Synonyms> (50)
N/A

>  <Target> (50)
c-Met 

>  <Form> (50)
Free Base

>  <CAS> (50)
943540-75-8

>  <URL> (50)
http://www.selleckchem.com/products/JNJ-38877605.html

$$$$
Everolimus.cdx
csChFnd80/05071909292D

 68 71  0  0  0  0  0  0  0  0999 V2000
    2.9726   19.2313    0.0000 C   0  0  0  0  0  0  0  0  0  0  0  0
    3.7816   20.3739    0.0000 O   0  0  0  0  0  0  0  0  0  0  0  0
    3.5575   17.9594    0.0000 C   0  0  0  0  0  0  0  0  0  0  0  0
    2.7485   16.8168    0.0000 O   0  0  0  0  0  0  0  0  0  0  0  0
    3.3334   15.5449    0.0000 C   0  0  1  0  0  0  0  0  0  0  0  0
    2.5243   14.4023    0.0000 C   0  0  1  0  0  0  0  0  0  0  0  0
    3.1093   13.1304    0.0000 C   0  0  0  0  0  0  0  0  0  0  0  0
    4.5033   13.0010    0.0000 C   0  0  1  0  0  0  0  0  0  0  0  0
    5.3124   14.1436    0.0000 C   0  0  0  0  0  0  0  0  0  0  0  0
    4.7274   15.4155    0.0000 C   0  0  0  0  0  0  0  0  0  0  0  0
    1.1303   14.5317    0.0000 O   0  0  0  0  0  0  0  0  0  0  0  0
    0.5454   15.8037    0.0000 C   0  0  0  0  0  0  0  0  0  0  0  0
    5.0883   11.7291    0.0000 C   0  0  0  0  0  0  0  0  0  0  0  0
    6.4823   11.5997    0.0000 C   0  0  1  0  0  0  0  0  0  0  0  0
    7.0672   10.3277    0.0000 C   0  0  1  0  0  0  0  0  0  0  0  0
    7.2913   12.7422    0.0000 C   0  0  0  0  0  0  0  0  0  0  0  0
    6.7882    8.9508    0.0000 O   0  0  0  0  0  0  0  0  0  0  0  0
    5.6172    8.1746    0.0000 C   0  0  0  0  0  0  0  0  0  0  0  0
    5.8854    6.8005    0.0000 O   0  0  0  0  0  0  0  0  0  0  0  0
    4.3258    8.7150    0.0000 C   0  0  2  0  0  0  0  0  0  0  0  0
    4.1474   10.1085    0.0000 C   0  0  0  0  0  0  0  0  0  0  0  0
    2.8514   10.6508    0.0000 C   0  0  0  0  0  0  0  0  0  0  0  0
    1.7338    9.7996    0.0000 C   0  0  0  0  0  0  0  0  0  0  0  0
    1.9121    8.4061    0.0000 C   0  0  0  0  0  0  0  0  0  0  0  0
    3.2081    7.8638    0.0000 N   0  0  0  0  0  0  0  0  0  0  0  0
    3.3858    6.4751    0.0000 C   0  0  0  0  0  0  0  0  0  0  0  0
    4.6924    5.9721    0.0000 O   0  0  0  0  0  0  0  0  0  0  0  0
    2.2844    5.6109    0.0000 C   0  0  0  0  0  0  0  0  0  0  0  0
    2.4821    4.2249    0.0000 C   0  0  1  0  0  0  0  0  0  0  0  0
    0.9974    6.1230    0.0000 O   0  0  0  0  0  0  0  0  0  0  0  0
    1.3769    3.3577    0.0000 C   0  0  1  0  0  0  0  0  0  0  0  0
    1.5753    1.9669    0.0000 C   0  0  0  0  0  0  0  0  0  0  0  0
    2.8790    1.4433    0.0000 C   0  0  0  0  0  0  0  0  0  0  0  0
    3.9842    2.3105    0.0000 C   0  0  2  0  0  0  0  0  0  0  0  0
    3.7858    3.7013    0.0000 O   0  0  0  0  0  0  0  0  0  0  0  0
    1.2244    4.8508    0.0000 O   0  0  0  0  0  0  0  0  0  0  0  0
    0.0000    3.6367    0.0000 C   0  0  0  0  0  0  0  0  0  0  0  0
    5.2420    1.6846    0.0000 C   0  0  0  0  0  0  0  0  0  0  0  0
    6.6896    2.1870    0.0000 C   0  0  1  0  0  0  0  0  0  0  0  0
    7.8492    1.3973    0.0000 C   0  0  0  0  0  0  0  0  0  0  0  0
    6.5086    3.9292    0.0000 O   0  0  0  0  0  0  0  0  0  0  0  0
    7.8359    4.3744    0.0000 C   0  0  0  0  0  0  0  0  0  0  0  0
    9.0161    2.1709    0.0000 C   0  0  0  0  0  0  0  0  0  0  0  0
    7.9357    0.0000    0.0000 C   0  0  0  0  0  0  0  0  0  0  0  0
    8.2271   10.3915    0.0000 C   0  0  0  0  0  0  0  0  0  0  0  0
    9.2228    9.6495    0.0000 C   0  0  0  0  0  0  0  0  0  0  0  0
   10.2513   10.7360    0.0000 C   0  0  1  0  0  0  0  0  0  0  0  0
    9.3003    8.3978    0.0000 O   0  0  0  0  0  0  0  0  0  0  0  0
   10.2694    1.5472    0.0000 C   0  0  0  0  0  0  0  0  0  0  0  0
   11.4363    2.3208    0.0000 C   0  0  0  0  0  0  0  0  0  0  0  0
   12.6897    1.6971    0.0000 C   0  0  0  0  0  0  0  0  0  0  0  0
   13.8565    2.4707    0.0000 C   0  0  0  0  0  0  0  0  0  0  0  0
   15.1099    1.8469    0.0000 C   0  0  2  0  0  0  0  0  0  0  0  0
   16.5010    3.0137    0.0000 C   0  0  0  0  0  0  0  0  0  0  0  0
   15.1964    0.4496    0.0000 C   0  0  0  0  0  0  0  0  0  0  0  0
   15.4828    4.1196    0.0000 C   0  0  2  0  0  0  0  0  0  0  0  0
   15.1428    6.0711    0.0000 C   0  0  0  0  0  0  0  0  0  0  0  0
   14.1554    3.6744    0.0000 C   0  0  0  0  0  0  0  0  0  0  0  0
   13.5626    6.7819    0.0000 C   0  0  1  0  0  0  0  0  0  0  0  0
   16.4701    6.5163    0.0000 O   0  0  0  0  0  0  0  0  0  0  0  0
   11.8975   10.1074    0.0000 C   0  0  0  0  0  0  0  0  0  0  0  0
   10.1648   12.1333    0.0000 C   0  0  0  0  0  0  0  0  0  0  0  0
   12.0012    8.4335    0.0000 C   0  0  0  0  0  0  0  0  0  0  0  0
   13.3472    7.9324    0.0000 C   0  0  1  0  0  0  0  0  0  0  0  0
   12.7546    5.7040    0.0000 O   0  0  0  0  0  0  0  0  0  0  0  0
   11.3573    5.6175    0.0000 C   0  0  0  0  0  0  0  0  0  0  0  0
   14.5596    8.6324    0.0000 O   0  0  0  0  0  0  0  0  0  0  0  0
   11.0240    7.4378    0.0000 C   0  0  0  0  0  0  0  0  0  0  0  0
  1  2  1  0  0  0  0
  1  3  1  0  0  0  0
  3  4  1  0  0  0  0
  5  6  1  0  0  0  0
  6  7  1  0  0  0  0
  7  8  1  0  0  0  0
  8  9  1  0  0  0  0
  9 10  1  0  0  0  0
 10  5  1  0  0  0  0
  5  4  1  6  0  0  0
  6 11  1  1  0  0  0
 11 12  1  0  0  0  0
  8 13  1  1  0  0  0
 13 14  1  0  0  0  0
 14 15  1  0  0  0  0
 14 16  1  6  0  0  0
 15 17  1  6  0  0  0
 17 18  1  0  0  0  0
 18 19  2  0  0  0  0
 20 21  1  0  0  0  0
 21 22  1  0  0  0  0
 22 23  1  0  0  0  0
 23 24  1  0  0  0  0
 24 25  1  0  0  0  0
 25 20  1  0  0  0  0
 20 18  1  1  0  0  0
 25 26  1  0  0  0  0
 26 27  2  0  0  0  0
 26 28  1  0  0  0  0
 28 29  1  0  0  0  0
 28 30  2  0  0  0  0
 29 31  1  0  0  0  0
 31 32  1  0  0  0  0
 32 33  1  0  0  0  0
 33 34  1  0  0  0  0
 34 35  1  0  0  0  0
 35 29  1  0  0  0  0
 29 36  1  1  0  0  0
 31 37  1  1  0  0  0
 34 38  1  6  0  0  0
 38 39  1  0  0  0  0
 39 40  1  0  0  0  0
 39 41  1  6  0  0  0
 41 42  1  0  0  0  0
 40 43  2  0  0  0  0
 40 44  1  0  0  0  0
 15 45  1  0  0  0  0
 45 46  1  0  0  0  0
 46 47  1  0  0  0  0
 46 48  2  0  0  0  0
 43 49  1  0  0  0  0
 49 50  2  0  0  0  0
 50 51  1  0  0  0  0
 51 52  2  0  0  0  0
 52 53  1  0  0  0  0
 53 54  1  0  0  0  0
 53 55  1  6  0  0  0
 56 57  1  0  0  0  0
 56 58  1  1  0  0  0
 57 59  1  0  0  0  0
 57 60  2  0  0  0  0
 47 61  1  0  0  0  0
 47 62  1  6  0  0  0
 61 63  2  0  0  0  0
 59 64  1  0  0  0  0
 59 65  1  6  0  0  0
 65 66  1  0  0  0  0
 64 67  1  1  0  0  0
 64 63  1  0  0  0  0
 56 54  1  0  0  0  0
 63 68  1  0  0  0  0
M  END
>  <Mol_ID> (51)
74

>  <Formula> (51)
C53H83NO14

>  <MolWeight> (51)
958.22442

>  <Cat> (51)
S1120

>  <Name> (51)
Everolimus (RAD001)

>  <Synonyms> (51)
Certican, Zortress, Afinitor

>  <Target> (51)
mTOR

>  <Form> (51)
Free Base

>  <CAS> (51)
159351-69-6

>  <URL> (51)
http://www.selleckchem.com/products/Everolimus(RAD001).html

$$$$
mln8237.cdx
csChFnd80/05071909292D

 37 41  0  0  0  0  0  0  0  0999 V2000
    0.0000    2.1000    0.0000 C   0  0  0  0  0  0  0  0  0  0  0  0
    0.0000    0.7000    0.0000 C   0  0  0  0  0  0  0  0  0  0  0  0
    1.2124    0.0000    0.0000 C   0  0  0  0  0  0  0  0  0  0  0  0
    2.4249    0.7000    0.0000 C   0  0  0  0  0  0  0  0  0  0  0  0
    2.4249    2.1000    0.0000 C   0  0  0  0  0  0  0  0  0  0  0  0
    1.2124    2.8000    0.0000 C   0  0  0  0  0  0  0  0  0  0  0  0
    1.2124    4.1951    0.0000 O   0  0  0  0  0  0  0  0  0  0  0  0
    0.0042    4.8927    0.0000 C   0  0  0  0  0  0  0  0  0  0  0  0
    3.6331    0.0024    0.0000 F   0  0  0  0  0  0  0  0  0  0  0  0
    3.6331    2.7976    0.0000 C   0  0  0  0  0  0  0  0  0  0  0  0
    4.7898    2.0089    0.0000 N   0  0  0  0  0  0  0  0  0  0  0  0
    6.1276    2.4216    0.0000 C   0  0  0  0  0  0  0  0  0  0  0  0
    6.6391    3.7248    0.0000 C   0  0  0  0  0  0  0  0  0  0  0  0
    5.9391    4.9372    0.0000 C   0  0  0  0  0  0  0  0  0  0  0  0
    4.5547    5.1459    0.0000 C   0  0  0  0  0  0  0  0  0  0  0  0
    3.5285    4.1937    0.0000 C   0  0  0  0  0  0  0  0  0  0  0  0
    8.0391    3.7248    0.0000 C   0  0  0  0  0  0  0  0  0  0  0  0
    8.7391    4.9372    0.0000 N   0  0  0  0  0  0  0  0  0  0  0  0
    8.0391    6.1497    0.0000 C   0  0  0  0  0  0  0  0  0  0  0  0
    6.6391    6.1497    0.0000 N   0  0  0  0  0  0  0  0  0  0  0  0
    4.2432    6.5108    0.0000 C   0  0  0  0  0  0  0  0  0  0  0  0
    2.9054    6.9235    0.0000 C   0  0  0  0  0  0  0  0  0  0  0  0
    1.8791    5.9712    0.0000 C   0  0  0  0  0  0  0  0  0  0  0  0
    2.1907    4.6063    0.0000 C   0  0  0  0  0  0  0  0  0  0  0  0
    0.5460    6.3824    0.0000 Cl  0  0  0  0  0  0  0  0  0  0  0  0
    8.7367    7.3579    0.0000 N   0  0  0  0  0  0  0  0  0  0  0  0
   10.1367    7.3579    0.0000 C   0  0  0  0  0  0  0  0  0  0  0  0
   10.8367    6.1455    0.0000 C   0  0  0  0  0  0  0  0  0  0  0  0
   12.2367    6.1455    0.0000 C   0  0  0  0  0  0  0  0  0  0  0  0
   12.9367    7.3579    0.0000 C   0  0  0  0  0  0  0  0  0  0  0  0
   12.2367    8.5703    0.0000 C   0  0  0  0  0  0  0  0  0  0  0  0
   10.8367    8.5703    0.0000 C   0  0  0  0  0  0  0  0  0  0  0  0
   12.9343    4.9372    0.0000 O   0  0  0  0  0  0  0  0  0  0  0  0
   12.2367    3.7290    0.0000 C   0  0  0  0  0  0  0  0  0  0  0  0
   14.3318    7.3579    0.0000 C   0  0  0  0  0  0  0  0  0  0  0  0
   15.0294    8.5661    0.0000 O   0  0  0  0  0  0  0  0  0  0  0  0
   15.0294    6.1497    0.0000 O   0  0  0  0  0  0  0  0  0  0  0  0
  1  2  2  0  0  0  0
  2  3  1  0  0  0  0
  3  4  2  0  0  0  0
  4  5  1  0  0  0  0
  5  6  2  0  0  0  0
  6  1  1  0  0  0  0
  6  7  1  0  0  0  0
  7  8  1  0  0  0  0
  4  9  1  0  0  0  0
  5 10  1  0  0  0  0
 10 11  2  0  0  0  0
 11 12  1  0  0  0  0
 12 13  1  0  0  0  0
 13 14  2  0  0  0  0
 14 15  1  0  0  0  0
 15 16  2  0  0  0  0
 16 10  1  0  0  0  0
 13 17  1  0  0  0  0
 17 18  2  0  0  0  0
 18 19  1  0  0  0  0
 19 20  2  0  0  0  0
 20 14  1  0  0  0  0
 15 21  1  0  0  0  0
 21 22  2  0  0  0  0
 22 23  1  0  0  0  0
 23 24  2  0  0  0  0
 24 16  1  0  0  0  0
 23 25  1  0  0  0  0
 19 26  1  0  0  0  0
 26 27  1  0  0  0  0
 27 28  2  0  0  0  0
 28 29  1  0  0  0  0
 29 30  2  0  0  0  0
 30 31  1  0  0  0  0
 31 32  2  0  0  0  0
 32 27  1  0  0  0  0
 29 33  1  0  0  0  0
 33 34  1  0  0  0  0
 30 35  1  0  0  0  0
 35 36  1  0  0  0  0
 35 37  2  0  0  0  0
M  END
>  <Mol_ID> (52)
79

>  <Formula> (52)
C27H20ClFN4O4

>  <MolWeight> (52)
518.9235032

>  <Cat> (52)
S1133

>  <Name> (52)
MLN8237 (Alisertib)

>  <Synonyms> (52)
Alisertib

>  <Target> (52)
Aurora Kinase

>  <Form> (52)
Free Base

>  <CAS> (52)
1028486-01-2

>  <URL> (52)
http://www.selleckchem.com/products/MLN8237.html

$$$$
XL-184 free base.cdx
csChFnd80/05071909292D

 37 41  0  0  0  0  0  0  0  0999 V2000
    4.8413    7.5051    0.0000 C   0  0  0  0  0  0  0  0  0  0  0  0
    4.8413    6.1051    0.0000 C   0  0  0  0  0  0  0  0  0  0  0  0
    6.0538    5.4051    0.0000 C   0  0  0  0  0  0  0  0  0  0  0  0
    7.2662    6.1051    0.0000 C   0  0  0  0  0  0  0  0  0  0  0  0
    7.2662    7.5051    0.0000 C   0  0  0  0  0  0  0  0  0  0  0  0
    6.0538    8.2051    0.0000 N   0  0  0  0  0  0  0  0  0  0  0  0
    3.6289    8.2051    0.0000 C   0  0  0  0  0  0  0  0  0  0  0  0
    2.4165    7.5051    0.0000 C   0  0  0  0  0  0  0  0  0  0  0  0
    2.4165    6.1051    0.0000 C   0  0  0  0  0  0  0  0  0  0  0  0
    3.6289    5.4051    0.0000 C   0  0  0  0  0  0  0  0  0  0  0  0
    1.2082    8.2027    0.0000 O   0  0  0  0  0  0  0  0  0  0  0  0
    1.2082    5.4076    0.0000 O   0  0  0  0  0  0  0  0  0  0  0  0
    0.0000    6.1051    0.0000 C   0  0  0  0  0  0  0  0  0  0  0  0
    0.0000    7.5051    0.0000 C   0  0  0  0  0  0  0  0  0  0  0  0
    6.0538    4.0100    0.0000 O   0  0  0  0  0  0  0  0  0  0  0  0
    7.2662    3.3100    0.0000 C   0  0  0  0  0  0  0  0  0  0  0  0
    7.2662    1.9100    0.0000 C   0  0  0  0  0  0  0  0  0  0  0  0
    8.4786    1.2100    0.0000 C   0  0  0  0  0  0  0  0  0  0  0  0
    9.6911    1.9100    0.0000 C   0  0  0  0  0  0  0  0  0  0  0  0
    9.6911    3.3100    0.0000 C   0  0  0  0  0  0  0  0  0  0  0  0
    8.4786    4.0100    0.0000 C   0  0  0  0  0  0  0  0  0  0  0  0
   10.8993    1.2124    0.0000 N   0  0  0  0  0  0  0  0  0  0  0  0
   12.1075    1.9100    0.0000 C   0  0  0  0  0  0  0  0  0  0  0  0
   13.3157    1.2124    0.0000 C   0  0  0  0  0  0  0  0  0  0  0  0
   14.5240    1.9100    0.0000 C   0  0  0  0  0  0  0  0  0  0  0  0
   12.1075    3.3051    0.0000 O   0  0  0  0  0  0  0  0  0  0  0  0
   15.7322    1.2124    0.0000 N   0  0  0  0  0  0  0  0  0  0  0  0
   14.5240    3.3051    0.0000 O   0  0  0  0  0  0  0  0  0  0  0  0
   16.9404    1.9100    0.0000 C   0  0  0  0  0  0  0  0  0  0  0  0
   18.1529    1.2100    0.0000 C   0  0  0  0  0  0  0  0  0  0  0  0
   19.3653    1.9100    0.0000 C   0  0  0  0  0  0  0  0  0  0  0  0
   19.3653    3.3100    0.0000 C   0  0  0  0  0  0  0  0  0  0  0  0
   18.1529    4.0100    0.0000 C   0  0  0  0  0  0  0  0  0  0  0  0
   16.9404    3.3100    0.0000 C   0  0  0  0  0  0  0  0  0  0  0  0
   20.5735    4.0076    0.0000 F   0  0  0  0  0  0  0  0  0  0  0  0
   12.6157    0.0000    0.0000 C   0  0  0  0  0  0  0  0  0  0  0  0
   14.0157    0.0000    0.0000 C   0  0  0  0  0  0  0  0  0  0  0  0
  1  2  2  0  0  0  0
  2  3  1  0  0  0  0
  3  4  2  0  0  0  0
  4  5  1  0  0  0  0
  5  6  2  0  0  0  0
  6  1  1  0  0  0  0
  1  7  1  0  0  0  0
  7  8  2  0  0  0  0
  8  9  1  0  0  0  0
  9 10  2  0  0  0  0
 10  2  1  0  0  0  0
  8 11  1  0  0  0  0
  9 12  1  0  0  0  0
 12 13  1  0  0  0  0
 11 14  1  0  0  0  0
  3 15  1  0  0  0  0
 15 16  1  0  0  0  0
 16 17  2  0  0  0  0
 17 18  1  0  0  0  0
 18 19  2  0  0  0  0
 19 20  1  0  0  0  0
 20 21  2  0  0  0  0
 21 16  1  0  0  0  0
 19 22  1  0  0  0  0
 22 23  1  0  0  0  0
 23 24  1  0  0  0  0
 24 25  1  0  0  0  0
 23 26  2  0  0  0  0
 25 27  1  0  0  0  0
 25 28  2  0  0  0  0
 27 29  1  0  0  0  0
 29 30  2  0  0  0  0
 30 31  1  0  0  0  0
 31 32  2  0  0  0  0
 32 33  1  0  0  0  0
 33 34  2  0  0  0  0
 34 29  1  0  0  0  0
 32 35  1  0  0  0  0
 24 36  1  0  0  0  0
 36 37  1  0  0  0  0
 37 24  1  0  0  0  0
M  END
>  <Mol_ID> (53)
80

>  <Formula> (53)
C28H24FN3O5

>  <MolWeight> (53)
501.5056632

>  <Cat> (53)
S1119

>  <Name> (53)
Cabozantinib (XL184, BMS-907351)

>  <Synonyms> (53)
N/A

>  <Target> (53)
VEGFR, c-Met, Flt, Tie-2, c-Kit

>  <Form> (53)
Free Base

>  <CAS> (53)
849217-68-1

>  <URL> (53)
http://www.selleckchem.com/products/XL184.html

$$$$
AT9283.cdx
csChFnd80/05071909292D

 28 32  0  0  0  0  0  0  0  0999 V2000
   13.5255    2.4098    0.0000 N   0  0  0  0  0  0  0  0  0  0  0  0
   12.1561    2.1187    0.0000 C   0  0  0  0  0  0  0  0  0  0  0  0
   11.7234    0.7873    0.0000 O   0  0  0  0  0  0  0  0  0  0  0  0
   11.2193    3.1591    0.0000 N   0  0  0  0  0  0  0  0  0  0  0  0
   12.9834    6.3232    0.0000 N   0  0  0  0  0  0  0  0  0  0  0  0
   11.6519    6.7559    0.0000 N   0  0  0  0  0  0  0  0  0  0  0  0
   10.8290    5.6232    0.0000 C   0  0  0  0  0  0  0  0  0  0  0  0
   11.6519    4.4906    0.0000 C   0  0  0  0  0  0  0  0  0  0  0  0
   12.9834    4.9232    0.0000 C   0  0  0  0  0  0  0  0  0  0  0  0
    9.4290    5.6232    0.0000 C   0  0  0  0  0  0  0  0  0  0  0  0
    8.6061    4.4906    0.0000 N   0  0  0  0  0  0  0  0  0  0  0  0
    7.2746    4.9232    0.0000 C   0  0  0  0  0  0  0  0  0  0  0  0
    7.2746    6.3232    0.0000 C   0  0  0  0  0  0  0  0  0  0  0  0
    8.6061    6.7559    0.0000 N   0  0  0  0  0  0  0  0  0  0  0  0
    6.0622    7.0232    0.0000 C   0  0  0  0  0  0  0  0  0  0  0  0
    4.8497    6.3232    0.0000 C   0  0  0  0  0  0  0  0  0  0  0  0
    4.8497    4.9232    0.0000 C   0  0  0  0  0  0  0  0  0  0  0  0
    6.0622    4.2232    0.0000 C   0  0  0  0  0  0  0  0  0  0  0  0
    3.6373    7.0232    0.0000 C   0  0  0  0  0  0  0  0  0  0  0  0
    0.0000    4.9232    0.0000 O   0  0  0  0  0  0  0  0  0  0  0  0
    1.2124    4.2232    0.0000 C   0  0  0  0  0  0  0  0  0  0  0  0
    2.4249    4.9232    0.0000 C   0  0  0  0  0  0  0  0  0  0  0  0
    2.4249    6.3232    0.0000 N   0  0  0  0  0  0  0  0  0  0  0  0
    1.2124    7.0232    0.0000 C   0  0  0  0  0  0  0  0  0  0  0  0
    0.0000    6.3232    0.0000 C   0  0  0  0  0  0  0  0  0  0  0  0
   14.4622    1.3694    0.0000 C   0  0  0  0  0  0  0  0  0  0  0  0
   14.7533    0.0000    0.0000 C   0  0  0  0  0  0  0  0  0  0  0  0
   15.7937    0.9368    0.0000 C   0  0  0  0  0  0  0  0  0  0  0  0
  1  2  1  0  0  0  0
  2  3  2  0  0  0  0
  2  4  1  0  0  0  0
  5  6  1  0  0  0  0
  6  7  2  0  0  0  0
  7  8  1  0  0  0  0
  8  9  2  0  0  0  0
  5  9  1  0  0  0  0
 10 11  1  0  0  0  0
 11 12  1  0  0  0  0
 12 13  1  0  0  0  0
 13 14  1  0  0  0  0
 10 14  2  0  0  0  0
 15 16  1  0  0  0  0
 16 17  2  0  0  0  0
 17 18  1  0  0  0  0
 12 18  2  0  0  0  0
 13 15  2  0  0  0  0
 20 21  1  0  0  0  0
 21 22  1  0  0  0  0
 22 23  1  0  0  0  0
 23 24  1  0  0  0  0
 24 25  1  0  0  0  0
 20 25  1  0  0  0  0
 19 23  1  0  0  0  0
 16 19  1  0  0  0  0
  7 10  1  0  0  0  0
  4  8  1  0  0  0  0
 26 27  1  0  0  0  0
 27 28  1  0  0  0  0
 26 28  1  0  0  0  0
  1 26  1  0  0  0  0
M  END
>  <Mol_ID> (54)
81

>  <Formula> (54)
C19H23N7O2

>  <MolWeight> (54)
381.43162

>  <Cat> (54)
S1134

>  <Name> (54)
AT9283

>  <Synonyms> (54)
N/A

>  <Target> (54)
Bcr-Abl, JAK, Aurora Kinase

>  <Form> (54)
Free Base

>  <CAS> (54)
896466-04-9

>  <URL> (54)
http://www.selleckchem.com/products/AT9283.html

$$$$

csChFnd80/05071909292D

 32 35  0  0  0  0  0  0  0  0999 V2000
   15.6809   -3.4349    0.0000 C   0  0  0  0  0  0  0  0  0  0  0  0
   15.6377   -4.7811    0.0000 C   0  0  0  0  0  0  0  0  0  0  0  0
   14.4590   -5.5036    0.0000 C   0  0  0  0  0  0  0  0  0  0  0  0
   13.2219   -4.8572    0.0000 C   0  0  0  0  0  0  0  0  0  0  0  0
   13.2651   -3.5110    0.0000 C   0  0  0  0  0  0  0  0  0  0  0  0
   14.4946   -2.7999    0.0000 C   0  0  0  0  0  0  0  0  0  0  0  0
   14.4590   -6.9032    0.0000 F   0  0  0  0  0  0  0  0  0  0  0  0
   17.0393   -3.0440    0.0000 N   0  0  0  0  0  0  0  0  0  0  0  0
   17.7627   -4.1491    0.0000 C   0  0  0  0  0  0  0  0  0  0  0  0
   16.8513   -5.2230    0.0000 C   0  0  0  0  0  0  0  0  0  0  0  0
   19.1596   -4.2418    0.0000 C   0  0  0  0  0  0  0  0  0  0  0  0
   12.0095   -5.5572    0.0000 O   0  0  0  0  0  0  0  0  0  0  0  0
   11.9389   -6.9554    0.0000 C   0  0  0  0  0  0  0  0  0  0  0  0
   13.0050   -7.6276    0.0000 N   0  0  0  0  0  0  0  0  0  0  0  0
   12.9194   -8.9717    0.0000 C   0  0  0  0  0  0  0  0  0  0  0  0
   11.6682   -9.6438    0.0000 N   0  0  0  0  0  0  0  0  0  0  0  0
   10.5025   -8.9717    0.0000 N   0  0  0  0  0  0  0  0  0  0  0  0
   10.5881   -7.6276    0.0000 C   0  0  0  0  0  0  0  0  0  0  0  0
    9.1489   -9.3872    0.0000 C   0  0  0  0  0  0  0  0  0  0  0  0
    8.3979   -8.2712    0.0000 C   0  0  0  0  0  0  0  0  0  0  0  0
    9.2874   -7.2122    0.0000 C   0  0  0  0  0  0  0  0  0  0  0  0
    8.8984   -5.8673    0.0000 C   0  0  0  0  0  0  0  0  0  0  0  0
    6.9999   -8.1969    0.0000 O   0  0  0  0  0  0  0  0  0  0  0  0
    6.2999   -6.9845    0.0000 C   0  0  0  0  0  0  0  0  0  0  0  0
    4.8999   -6.9845    0.0000 C   0  0  1  0  0  0  0  0  0  0  0  0
    4.1999   -5.7720    0.0000 C   0  0  0  0  0  0  0  0  0  0  0  0
    4.1999   -8.1969    0.0000 O   0  0  0  0  0  0  0  0  0  0  0  0
    4.8999   -9.4093    0.0000 C   0  0  0  0  0  0  0  0  0  0  0  0
    4.1999  -10.6219    0.0000 C   0  0  1  0  0  0  0  0  0  0  0  0
    6.2999   -9.4093    0.0000 O   0  0  0  0  0  0  0  0  0  0  0  0
    4.8999  -11.8342    0.0000 N   0  0  0  0  0  0  0  0  0  0  0  0
    2.7999  -10.6219    0.0000 C   0  0  0  0  0  0  0  0  0  0  0  0
  1  2  2  0  0  0  0
  2  3  1  0  0  0  0
  3  4  2  0  0  0  0
  4  5  1  0  0  0  0
  5  6  2  0  0  0  0
  6  1  1  0  0  0  0
  3  7  1  0  0  0  0
  1  8  1  0  0  0  0
  8  9  1  0  0  0  0
  9 10  2  0  0  0  0
 10  2  1  0  0  0  0
  9 11  1  0  0  0  0
  4 12  1  0  0  0  0
 12 13  1  0  0  0  0
 13 14  2  0  0  0  0
 14 15  1  0  0  0  0
 15 16  2  0  0  0  0
 16 17  1  0  0  0  0
 17 18  1  0  0  0  0
 18 13  1  0  0  0  0
 17 19  1  0  0  0  0
 19 20  2  0  0  0  0
 20 21  1  0  0  0  0
 21 18  2  0  0  0  0
 21 22  1  0  0  0  0
 20 23  1  0  0  0  0
 23 24  1  0  0  0  0
 24 25  1  0  0  0  0
 25 26  1  0  0  0  0
 27 28  1  0  0  0  0
 28 29  1  0  0  0  0
 28 30  2  0  0  0  0
 29 31  1  0  0  0  0
 29 32  1  1  0  0  0
 25 27  1  6  0  0  0
M  END
>  <Mol_ID> (55)
85

>  <Formula> (55)
C22H24FN5O4

>  <MolWeight> (55)
441.4554632

>  <Cat> (55)
S1138 

>  <Name> (55)
Brivanib alaninate (BMS-582664)

>  <Synonyms> (55)
N/A 

>  <Target> (55)
VEGFR, FGFR

>  <Form> (55)
Alaninate

>  <CAS> (55)
649735-63-7

>  <URL> (55)
http://www.selleckchem.com/products/Brivanib-alaninate.html

$$$$
AG-490.cdx
csChFnd80/05071909292D

 22 23  0  0  0  0  0  0  0  0999 V2000
    1.2082    2.7903    0.0000 C   0  0  0  0  0  0  0  0  0  0  0  0
    1.2082    1.3903    0.0000 C   0  0  0  0  0  0  0  0  0  0  0  0
    2.4207    0.6903    0.0000 C   0  0  0  0  0  0  0  0  0  0  0  0
    3.6331    1.3903    0.0000 C   0  0  0  0  0  0  0  0  0  0  0  0
    3.6331    2.7903    0.0000 C   0  0  0  0  0  0  0  0  0  0  0  0
    2.4207    3.4903    0.0000 C   0  0  0  0  0  0  0  0  0  0  0  0
    0.0000    3.4879    0.0000 O   0  0  0  0  0  0  0  0  0  0  0  0
    0.0000    0.6927    0.0000 O   0  0  0  0  0  0  0  0  0  0  0  0
    4.8413    3.4879    0.0000 C   0  0  0  0  0  0  0  0  0  0  0  0
    6.0496    2.7903    0.0000 C   0  0  0  0  0  0  0  0  0  0  0  0
    7.2578    3.4879    0.0000 C   0  0  0  0  0  0  0  0  0  0  0  0
    6.0496    1.3951    0.0000 C   0  0  0  0  0  0  0  0  0  0  0  0
    6.0496    0.0000    0.0000 N   0  0  0  0  0  0  0  0  0  0  0  0
    8.4660    2.7903    0.0000 N   0  0  0  0  0  0  0  0  0  0  0  0
    7.2578    4.8830    0.0000 O   0  0  0  0  0  0  0  0  0  0  0  0
    9.6742    3.4879    0.0000 C   0  0  0  0  0  0  0  0  0  0  0  0
   10.8825    2.7903    0.0000 C   0  0  0  0  0  0  0  0  0  0  0  0
   10.8825    1.3903    0.0000 C   0  0  0  0  0  0  0  0  0  0  0  0
   12.0949    0.6903    0.0000 C   0  0  0  0  0  0  0  0  0  0  0  0
   13.3073    1.3903    0.0000 C   0  0  0  0  0  0  0  0  0  0  0  0
   13.3073    2.7903    0.0000 C   0  0  0  0  0  0  0  0  0  0  0  0
   12.0949    3.4903    0.0000 C   0  0  0  0  0  0  0  0  0  0  0  0
  1  2  2  0  0  0  0
  2  3  1  0  0  0  0
  3  4  2  0  0  0  0
  4  5  1  0  0  0  0
  5  6  2  0  0  0  0
  6  1  1  0  0  0  0
  1  7  1  0  0  0  0
  2  8  1  0  0  0  0
  5  9  1  0  0  0  0
  9 10  2  0  0  0  0
 10 11  1  0  0  0  0
 10 12  1  0  0  0  0
 12 13  3  0  0  0  0
 11 14  1  0  0  0  0
 11 15  2  0  0  0  0
 14 16  1  0  0  0  0
 16 17  1  0  0  0  0
 17 18  2  0  0  0  0
 18 19  1  0  0  0  0
 19 20  2  0  0  0  0
 20 21  1  0  0  0  0
 21 22  2  0  0  0  0
 22 17  1  0  0  0  0
M  END
>  <Mol_ID> (56)
87

>  <Formula> (56)
C17H14N2O3

>  <MolWeight> (56)
294.30466

>  <Cat> (56)
S1143

>  <Name> (56)
AG-490 (Tyrphostin B42)

>  <Synonyms> (56)
N/A

>  <Target> (56)
JAK, EGFR

>  <Form> (56)
Free Base

>  <CAS> (56)
133550-30-8 

>  <URL> (56)
http://www.selleckchem.com/products/AG-490.html

$$$$
untitled.cdx
csChFnd80/05071909292D

 25 27  0  0  0  0  0  0  0  0999 V2000
    2.3342    2.0521    0.0000 C   0  0  0  0  0  0  0  0  0  0  0  0
    2.0683    0.6776    0.0000 C   0  0  0  0  0  0  0  0  0  0  0  0
    3.2934    0.0000    0.0000 N   0  0  0  0  0  0  0  0  0  0  0  0
    4.3165    0.9557    0.0000 C   0  0  0  0  0  0  0  0  0  0  0  0
    3.7236    2.2240    0.0000 O   0  0  0  0  0  0  0  0  0  0  0  0
    1.3785    3.0752    0.0000 C   0  0  0  0  0  0  0  0  0  0  0  0
    0.4776    4.1468    0.0000 C   0  0  0  0  0  0  0  0  0  0  0  0
    1.7866    4.4144    0.0000 C   0  0  0  0  0  0  0  0  0  0  0  0
    0.0000    2.8308    0.0000 C   0  0  0  0  0  0  0  0  0  0  0  0
    5.6910    0.6898    0.0000 C   0  0  0  0  0  0  0  0  0  0  0  0
    6.6085    1.7473    0.0000 S   0  0  0  0  0  0  0  0  0  0  0  0
    7.9830    1.4814    0.0000 C   0  0  0  0  0  0  0  0  0  0  0  0
    8.5758    0.2131    0.0000 C   0  0  0  0  0  0  0  0  0  0  0  0
    9.9652    0.3849    0.0000 N   0  0  0  0  0  0  0  0  0  0  0  0
   10.2311    1.7595    0.0000 C   0  0  0  0  0  0  0  0  0  0  0  0
    9.0061    2.4371    0.0000 S   0  0  0  0  0  0  0  0  0  0  0  0
   11.4994    2.3523    0.0000 N   0  0  0  0  0  0  0  0  0  0  0  0
   12.6470    1.5503    0.0000 C   0  0  0  0  0  0  0  0  0  0  0  0
   12.5262    0.1555    0.0000 O   0  0  0  0  0  0  0  0  0  0  0  0
   13.9153    2.1431    0.0000 C   0  0  0  0  0  0  0  0  0  0  0  0
   15.0628    1.3412    0.0000 C   0  0  0  0  0  0  0  0  0  0  0  0
   16.3311    1.9340    0.0000 C   0  0  0  0  0  0  0  0  0  0  0  0
   16.4519    3.3288    0.0000 N   0  0  0  0  0  0  0  0  0  0  0  0
   15.3043    4.1307    0.0000 C   0  0  0  0  0  0  0  0  0  0  0  0
   14.0360    3.5379    0.0000 C   0  0  0  0  0  0  0  0  0  0  0  0
  1  2  2  0  0  0  0
  2  3  1  0  0  0  0
  3  4  2  0  0  0  0
  4  5  1  0  0  0  0
  5  1  1  0  0  0  0
  1  6  1  0  0  0  0
  6  7  1  0  0  0  0
  6  8  1  0  0  0  0
  6  9  1  0  0  0  0
  4 10  1  0  0  0  0
 10 11  1  0  0  0  0
 11 12  1  0  0  0  0
 12 13  2  0  0  0  0
 13 14  1  0  0  0  0
 14 15  2  0  0  0  0
 15 16  1  0  0  0  0
 16 12  1  0  0  0  0
 15 17  1  0  0  0  0
 17 18  1  0  0  0  0
 18 19  2  0  0  0  0
 18 20  1  0  0  0  0
 20 21  1  0  0  0  0
 21 22  1  0  0  0  0
 22 23  1  0  0  0  0
 23 24  1  0  0  0  0
 24 25  1  0  0  0  0
 25 20  1  0  0  0  0
M  END
>  <Mol_ID> (57)
89

>  <Formula> (57)
C17H24N4O2S2

>  <MolWeight> (57)
380.52806

>  <Cat> (57)
S1145

>  <Name> (57)
SNS-032 (BMS-387032)

>  <Synonyms> (57)
BMS-387032

>  <Target> (57)
CDK 

>  <Form> (57)
Free Base

>  <CAS> (57)
345627-80-7

>  <URL> (57)
http://www.selleckchem.com/products/SNS-032.html

$$$$
untitled.cdx
csChFnd80/05071909292D

 37 40  0  0  0  0  0  0  0  0999 V2000
    9.6658    9.0410    0.0000 C   0  0  0  0  0  0  0  0  0  0  0  0
    9.6658    7.6410    0.0000 C   0  0  0  0  0  0  0  0  0  0  0  0
   10.8783    6.9410    0.0000 C   0  0  0  0  0  0  0  0  0  0  0  0
   12.0907    7.6410    0.0000 C   0  0  0  0  0  0  0  0  0  0  0  0
   12.0907    9.0410    0.0000 C   0  0  0  0  0  0  0  0  0  0  0  0
   10.8783    9.7410    0.0000 C   0  0  0  0  0  0  0  0  0  0  0  0
   13.3031    6.9410    0.0000 C   0  0  0  0  0  0  0  0  0  0  0  0
   14.5156    7.6410    0.0000 N   0  0  0  0  0  0  0  0  0  0  0  0
   14.5156    9.0410    0.0000 C   0  0  0  0  0  0  0  0  0  0  0  0
   13.3031    9.7410    0.0000 N   0  0  0  0  0  0  0  0  0  0  0  0
   13.3031    5.5459    0.0000 N   0  0  0  0  0  0  0  0  0  0  0  0
   14.5114    4.8483    0.0000 C   0  0  0  0  0  0  0  0  0  0  0  0
   14.6577    3.4560    0.0000 N   0  0  0  0  0  0  0  0  0  0  0  0
   16.0271    3.1649    0.0000 N   0  0  0  0  0  0  0  0  0  0  0  0
   16.7271    4.3773    0.0000 C   0  0  0  0  0  0  0  0  0  0  0  0
   15.7903    5.4177    0.0000 C   0  0  0  0  0  0  0  0  0  0  0  0
   18.1146    4.5231    0.0000 C   0  0  0  0  0  0  0  0  0  0  0  0
   18.9346    3.3944    0.0000 C   0  0  0  0  0  0  0  0  0  0  0  0
   20.3221    3.5403    0.0000 N   0  0  0  0  0  0  0  0  0  0  0  0
   18.3672    2.1199    0.0000 O   0  0  0  0  0  0  0  0  0  0  0  0
   21.1422    2.4116    0.0000 C   0  0  0  0  0  0  0  0  0  0  0  0
    8.4576    9.7386    0.0000 O   0  0  0  0  0  0  0  0  0  0  0  0
    7.2494    9.0410    0.0000 C   0  0  0  0  0  0  0  0  0  0  0  0
    6.0411    9.7386    0.0000 C   0  0  0  0  0  0  0  0  0  0  0  0
    4.8329    9.0410    0.0000 C   0  0  0  0  0  0  0  0  0  0  0  0
    3.6247    9.7386    0.0000 N   0  0  0  0  0  0  0  0  0  0  0  0
    2.4165    9.0410    0.0000 C   0  0  0  0  0  0  0  0  0  0  0  0
    3.6247   11.1337    0.0000 C   0  0  0  0  0  0  0  0  0  0  0  0
    2.4165   11.8313    0.0000 C   0  0  0  0  0  0  0  0  0  0  0  0
    1.2082    9.7386    0.0000 C   0  0  0  0  0  0  0  0  0  0  0  0
    0.0000    9.0410    0.0000 O   0  0  0  0  0  0  0  0  0  0  0  0
   20.5728    1.1326    0.0000 C   0  0  0  0  0  0  0  0  0  0  0  0
   21.3957    0.0000    0.0000 C   0  0  0  0  0  0  0  0  0  0  0  0
   22.7880    0.1463    0.0000 C   0  0  0  0  0  0  0  0  0  0  0  0
   23.3574    1.4253    0.0000 C   0  0  0  0  0  0  0  0  0  0  0  0
   22.5345    2.5579    0.0000 C   0  0  0  0  0  0  0  0  0  0  0  0
   24.7449    1.5711    0.0000 F   0  0  0  0  0  0  0  0  0  0  0  0
  1  2  2  0  0  0  0
  2  3  1  0  0  0  0
  3  4  2  0  0  0  0
  4  5  1  0  0  0  0
  5  6  2  0  0  0  0
  6  1  1  0  0  0  0
  4  7  1  0  0  0  0
  7  8  2  0  0  0  0
  8  9  1  0  0  0  0
  9 10  2  0  0  0  0
 10  5  1  0  0  0  0
  7 11  1  0  0  0  0
 11 12  1  0  0  0  0
 12 13  1  0  0  0  0
 13 14  1  0  0  0  0
 14 15  2  0  0  0  0
 15 16  1  0  0  0  0
 16 12  2  0  0  0  0
 15 17  1  0  0  0  0
 17 18  1  0  0  0  0
 18 19  1  0  0  0  0
 18 20  2  0  0  0  0
 19 21  1  0  0  0  0
  1 22  1  0  0  0  0
 22 23  1  0  0  0  0
 23 24  1  0  0  0  0
 24 25  1  0  0  0  0
 25 26  1  0  0  0  0
 26 27  1  0  0  0  0
 26 28  1  0  0  0  0
 28 29  1  0  0  0  0
 27 30  1  0  0  0  0
 30 31  1  0  0  0  0
 21 32  2  0  0  0  0
 32 33  1  0  0  0  0
 33 34  2  0  0  0  0
 34 35  1  0  0  0  0
 35 36  2  0  0  0  0
 36 21  1  0  0  0  0
 35 37  1  0  0  0  0
M  END
>  <Mol_ID> (58)
90

>  <Formula> (58)
C26H30FN7O3

>  <MolWeight> (58)
507.5599032

>  <Cat> (58)
S1147

>  <Name> (58)
Barasertib (AZD1152-HQPA)

>  <Synonyms> (58)
AZD1152 

>  <Target> (58)
Aurora Kinase

>  <Form> (58)
Free Base

>  <CAS> (58)
722544-51-6

>  <URL> (58)
http://www.selleckchem.com/products/AZD1152-HQPA.html

$$$$
untitled.cdx
csChFnd80/05071909292D

 27 29  0  0  0  0  0  0  0  0999 V2000
    1.2082    2.1000    0.0000 C   0  0  0  0  0  0  0  0  0  0  0  0
    1.2082    0.7000    0.0000 C   0  0  0  0  0  0  0  0  0  0  0  0
    2.4207    0.0000    0.0000 N   0  0  0  0  0  0  0  0  0  0  0  0
    3.6331    0.7000    0.0000 C   0  0  0  0  0  0  0  0  0  0  0  0
    3.6331    2.1000    0.0000 C   0  0  0  0  0  0  0  0  0  0  0  0
    2.4207    2.8000    0.0000 C   0  0  0  0  0  0  0  0  0  0  0  0
    4.9646    0.2674    0.0000 N   0  0  0  0  0  0  0  0  0  0  0  0
    5.7875    1.4000    0.0000 C   0  0  0  0  0  0  0  0  0  0  0  0
    4.9646    2.5326    0.0000 C   0  0  0  0  0  0  0  0  0  0  0  0
    0.0000    2.7976    0.0000 Cl  0  0  0  0  0  0  0  0  0  0  0  0
    5.3957    3.8595    0.0000 C   0  0  0  0  0  0  0  0  0  0  0  0
    4.4092    4.8460    0.0000 O   0  0  0  0  0  0  0  0  0  0  0  0
    6.7604    4.1496    0.0000 C   0  0  0  0  0  0  0  0  0  0  0  0
    7.6971    3.1091    0.0000 C   0  0  0  0  0  0  0  0  0  0  0  0
    9.0666    3.4002    0.0000 C   0  0  0  0  0  0  0  0  0  0  0  0
    9.4992    4.7317    0.0000 C   0  0  0  0  0  0  0  0  0  0  0  0
    8.5624    5.7721    0.0000 C   0  0  0  0  0  0  0  0  0  0  0  0
    7.1930    5.4810    0.0000 C   0  0  0  0  0  0  0  0  0  0  0  0
    7.2660    1.7823    0.0000 F   0  0  0  0  0  0  0  0  0  0  0  0
    6.2595    6.5178    0.0000 F   0  0  0  0  0  0  0  0  0  0  0  0
   10.0001    2.3634    0.0000 N   0  0  0  0  0  0  0  0  0  0  0  0
   11.3647    2.6535    0.0000 S   0  0  0  0  0  0  0  0  0  0  0  0
   11.0747    4.0182    0.0000 O   0  0  0  0  0  0  0  0  0  0  0  0
   11.6548    1.2888    0.0000 O   0  0  0  0  0  0  0  0  0  0  0  0
   12.7294    2.9436    0.0000 C   0  0  0  0  0  0  0  0  0  0  0  0
   13.1605    4.2704    0.0000 C   0  0  0  0  0  0  0  0  0  0  0  0
   12.1740    5.2569    0.0000 C   0  0  0  0  0  0  0  0  0  0  0  0
  1  2  2  0  0  0  0
  2  3  1  0  0  0  0
  3  4  2  0  0  0  0
  4  5  1  0  0  0  0
  5  6  2  0  0  0  0
  6  1  1  0  0  0  0
  4  7  1  0  0  0  0
  7  8  1  0  0  0  0
  8  9  2  0  0  0  0
  9  5  1  0  0  0  0
  1 10  1  0  0  0  0
  9 11  1  0  0  0  0
 11 12  2  0  0  0  0
 11 13  1  0  0  0  0
 13 14  2  0  0  0  0
 14 15  1  0  0  0  0
 15 16  2  0  0  0  0
 16 17  1  0  0  0  0
 17 18  2  0  0  0  0
 18 13  1  0  0  0  0
 14 19  1  0  0  0  0
 18 20  1  0  0  0  0
 15 21  1  0  0  0  0
 21 22  1  0  0  0  0
 22 23  2  0  0  0  0
 22 24  2  0  0  0  0
 22 25  1  0  0  0  0
 25 26  1  0  0  0  0
 26 27  1  0  0  0  0
M  END
>  <Mol_ID> (59)
93

>  <Formula> (59)
C17H14ClF2N3O3S

>  <MolWeight> (59)
413.8261664

>  <Cat> (59)
S1152

>  <Name> (59)
PLX-4720

>  <Synonyms> (59)
N/A

>  <Target> (59)
Raf 

>  <Form> (59)
Free Base

>  <CAS> (59)
918505-84-7

>  <URL> (59)
http://www.selleckchem.com/products/PLX-4720.html

$$$$
untitled.cdx
csChFnd80/05071909292D

 26 28  0  0  0  0  0  0  0  0999 V2000
    6.0380    2.1172    0.0000 N   0  0  0  0  0  0  0  0  0  0  0  0
    7.2576    2.8047    0.0000 C   0  0  0  0  0  0  0  0  0  0  0  0
    7.2720    4.2047    0.0000 C   0  0  0  0  0  0  0  0  0  0  0  0
    6.0668    4.9172    0.0000 C   0  0  0  0  0  0  0  0  0  0  0  0
    4.8472    4.2296    0.0000 N   0  0  0  0  0  0  0  0  0  0  0  0
    4.8328    2.8297    0.0000 C   0  0  0  0  0  0  0  0  0  0  0  0
    8.5846    2.3584    0.0000 N   0  0  0  0  0  0  0  0  0  0  0  0
    9.4191    3.4826    0.0000 C   0  0  0  0  0  0  0  0  0  0  0  0
    8.6079    4.6236    0.0000 N   0  0  0  0  0  0  0  0  0  0  0  0
    9.0021    1.0272    0.0000 C   0  0  0  0  0  0  0  0  0  0  0  0
    8.0579    0.0000    0.0000 C   0  0  0  0  0  0  0  0  0  0  0  0
   10.3637    0.7231    0.0000 C   0  0  0  0  0  0  0  0  0  0  0  0
    3.6174    2.1445    0.0000 N   0  0  0  0  0  0  0  0  0  0  0  0
    2.4164    2.8545    0.0000 C   0  0  1  0  0  0  0  0  0  0  0  0
    1.2010    2.1694    0.0000 C   0  0  0  0  0  0  0  0  0  0  0  0
    0.0000    2.8794    0.0000 O   0  0  0  0  0  0  0  0  0  0  0  0
    2.4307    4.2496    0.0000 C   0  0  0  0  0  0  0  0  0  0  0  0
    1.2297    4.9596    0.0000 C   0  0  0  0  0  0  0  0  0  0  0  0
    6.0811    6.3123    0.0000 N   0  0  0  0  0  0  0  0  0  0  0  0
    7.2996    6.9919    0.0000 C   0  0  0  0  0  0  0  0  0  0  0  0
    7.3202    8.3870    0.0000 C   0  0  0  0  0  0  0  0  0  0  0  0
    8.5272    9.0963    0.0000 C   0  0  0  0  0  0  0  0  0  0  0  0
    8.5272   10.4963    0.0000 C   0  0  0  0  0  0  0  0  0  0  0  0
    7.3202   11.1870    0.0000 C   0  0  0  0  0  0  0  0  0  0  0  0
    6.1131   10.4963    0.0000 C   0  0  0  0  0  0  0  0  0  0  0  0
    6.1131    9.0963    0.0000 C   0  0  0  0  0  0  0  0  0  0  0  0
  1  2  2  0  0  0  0
  2  3  1  0  0  0  0
  3  4  2  0  0  0  0
  4  5  1  0  0  0  0
  5  6  2  0  0  0  0
  6  1  1  0  0  0  0
  2  7  1  0  0  0  0
  7  8  1  0  0  0  0
  8  9  2  0  0  0  0
  9  3  1  0  0  0  0
  7 10  1  0  0  0  0
 10 11  1  0  0  0  0
 10 12  1  0  0  0  0
  6 13  1  0  0  0  0
 13 14  1  0  0  0  0
 14 15  1  0  0  0  0
 15 16  1  0  0  0  0
 14 17  1  1  0  0  0
 17 18  1  0  0  0  0
  4 19  1  0  0  0  0
 19 20  1  0  0  0  0
 20 21  1  0  0  0  0
 21 22  2  0  0  0  0
 22 23  1  0  0  0  0
 23 24  2  0  0  0  0
 24 25  1  0  0  0  0
 25 26  2  0  0  0  0
 26 21  1  0  0  0  0
M  END
>  <Mol_ID> (60)
94

>  <Formula> (60)
C19H26N6O

>  <MolWeight> (60)
354.44934

>  <Cat> (60)
S1153

>  <Name> (60)
Roscovitine (Seliciclib, CYC202) 

>  <Synonyms> (60)
N/A 

>  <Target> (60)
CDK 

>  <Form> (60)
Free Base

>  <CAS> (60)
186692-46-6 

>  <URL> (60)
http://www.selleckchem.com/products/Roscovitine.html

$$$$
CP-724,714.cdx
csChFnd80/05071909292D

 35 38  0  0  0  0  0  0  0  0999 V2000
    9.6658    2.1000    0.0000 C   0  0  0  0  0  0  0  0  0  0  0  0
    9.6658    0.7000    0.0000 C   0  0  0  0  0  0  0  0  0  0  0  0
   10.8782    0.0000    0.0000 C   0  0  0  0  0  0  0  0  0  0  0  0
   12.0907    0.7000    0.0000 C   0  0  0  0  0  0  0  0  0  0  0  0
   12.0907    2.1000    0.0000 C   0  0  0  0  0  0  0  0  0  0  0  0
   10.8782    2.8000    0.0000 C   0  0  0  0  0  0  0  0  0  0  0  0
   13.3031    0.0000    0.0000 N   0  0  0  0  0  0  0  0  0  0  0  0
   14.5156    0.7000    0.0000 C   0  0  0  0  0  0  0  0  0  0  0  0
   14.5156    2.1000    0.0000 N   0  0  0  0  0  0  0  0  0  0  0  0
   13.3031    2.8000    0.0000 C   0  0  0  0  0  0  0  0  0  0  0  0
   13.3031    4.1951    0.0000 N   0  0  0  0  0  0  0  0  0  0  0  0
   14.5113    4.8927    0.0000 C   0  0  0  0  0  0  0  0  0  0  0  0
    8.4576    2.7976    0.0000 C   0  0  0  0  0  0  0  0  0  0  0  0
    7.2494    2.1000    0.0000 C   0  0  0  0  0  0  0  0  0  0  0  0
    6.0411    2.7976    0.0000 C   0  0  0  0  0  0  0  0  0  0  0  0
    4.8329    2.1000    0.0000 N   0  0  0  0  0  0  0  0  0  0  0  0
    3.6247    2.7976    0.0000 C   0  0  0  0  0  0  0  0  0  0  0  0
    2.4165    2.1000    0.0000 C   0  0  0  0  0  0  0  0  0  0  0  0
    3.6247    4.1927    0.0000 O   0  0  0  0  0  0  0  0  0  0  0  0
    1.2082    2.7976    0.0000 O   0  0  0  0  0  0  0  0  0  0  0  0
    0.0000    2.1000    0.0000 C   0  0  0  0  0  0  0  0  0  0  0  0
   15.7238    4.1927    0.0000 C   0  0  0  0  0  0  0  0  0  0  0  0
   16.9362    4.8927    0.0000 C   0  0  0  0  0  0  0  0  0  0  0  0
   16.9362    6.2927    0.0000 C   0  0  0  0  0  0  0  0  0  0  0  0
   15.7238    6.9927    0.0000 C   0  0  0  0  0  0  0  0  0  0  0  0
   14.5113    6.2927    0.0000 C   0  0  0  0  0  0  0  0  0  0  0  0
   15.7238    8.3879    0.0000 C   0  0  0  0  0  0  0  0  0  0  0  0
   18.1444    6.9903    0.0000 O   0  0  0  0  0  0  0  0  0  0  0  0
   19.3527    6.2927    0.0000 C   0  0  0  0  0  0  0  0  0  0  0  0
   19.3527    4.8927    0.0000 C   0  0  0  0  0  0  0  0  0  0  0  0
   20.5651    4.1927    0.0000 C   0  0  0  0  0  0  0  0  0  0  0  0
   21.7775    4.8927    0.0000 C   0  0  0  0  0  0  0  0  0  0  0  0
   21.7775    6.2927    0.0000 N   0  0  0  0  0  0  0  0  0  0  0  0
   20.5651    6.9927    0.0000 C   0  0  0  0  0  0  0  0  0  0  0  0
   22.9858    4.1951    0.0000 C   0  0  0  0  0  0  0  0  0  0  0  0
  1  2  2  0  0  0  0
  2  3  1  0  0  0  0
  3  4  2  0  0  0  0
  4  5  1  0  0  0  0
  5  6  2  0  0  0  0
  6  1  1  0  0  0  0
  4  7  1  0  0  0  0
  7  8  2  0  0  0  0
  8  9  1  0  0  0  0
  9 10  2  0  0  0  0
 10  5  1  0  0  0  0
 10 11  1  0  0  0  0
 11 12  1  0  0  0  0
  1 13  1  0  0  0  0
 13 14  2  0  0  0  0
 14 15  1  0  0  0  0
 15 16  1  0  0  0  0
 16 17  1  0  0  0  0
 17 18  1  0  0  0  0
 17 19  2  0  0  0  0
 18 20  1  0  0  0  0
 20 21  1  0  0  0  0
 12 22  2  0  0  0  0
 22 23  1  0  0  0  0
 23 24  2  0  0  0  0
 24 25  1  0  0  0  0
 25 26  2  0  0  0  0
 26 12  1  0  0  0  0
 25 27  1  0  0  0  0
 24 28  1  0  0  0  0
 28 29  1  0  0  0  0
 29 30  2  0  0  0  0
 30 31  1  0  0  0  0
 31 32  2  0  0  0  0
 32 33  1  0  0  0  0
 33 34  2  0  0  0  0
 34 29  1  0  0  0  0
 32 35  1  0  0  0  0
M  END
>  <Mol_ID> (61)
98

>  <Formula> (61)
C27H27N5O3

>  <MolWeight> (61)
469.53498

>  <Cat> (61)
S1167

>  <Name> (61)
CP-724714

>  <Synonyms> (61)
N/A

>  <Target> (61)
EGFR, HER2

>  <Form> (61)
Free Base

>  <CAS> (61)
537705-08-1

>  <URL> (61)
http://www.selleckchem.com/products/CP-724714.html

$$$$
TGX-221.cdx
csChFnd80/05071909292D

 27 30  0  0  0  0  0  0  0  0999 V2000
    1.2082    4.1976    0.0000 C   0  0  0  0  0  0  0  0  0  0  0  0
    1.2082    2.7976    0.0000 C   0  0  0  0  0  0  0  0  0  0  0  0
    2.4207    2.0976    0.0000 C   0  0  0  0  0  0  0  0  0  0  0  0
    3.6331    2.7976    0.0000 C   0  0  0  0  0  0  0  0  0  0  0  0
    3.6331    4.1976    0.0000 C   0  0  0  0  0  0  0  0  0  0  0  0
    2.4207    4.8976    0.0000 N   0  0  0  0  0  0  0  0  0  0  0  0
    0.0000    2.1000    0.0000 C   0  0  0  0  0  0  0  0  0  0  0  0
    4.8413    2.1000    0.0000 C   0  0  3  0  0  0  0  0  0  0  0  0
    4.8413    0.7049    0.0000 C   0  0  0  0  0  0  0  0  0  0  0  0
    6.0496    2.7976    0.0000 N   0  0  0  0  0  0  0  0  0  0  0  0
    7.2578    2.1000    0.0000 C   0  0  0  0  0  0  0  0  0  0  0  0
    7.2578    0.7000    0.0000 C   0  0  0  0  0  0  0  0  0  0  0  0
    8.4702    0.0000    0.0000 C   0  0  0  0  0  0  0  0  0  0  0  0
    9.6827    0.7000    0.0000 C   0  0  0  0  0  0  0  0  0  0  0  0
    9.6827    2.1000    0.0000 C   0  0  0  0  0  0  0  0  0  0  0  0
    8.4702    2.8000    0.0000 C   0  0  0  0  0  0  0  0  0  0  0  0
    4.8455    4.8976    0.0000 N   0  0  0  0  0  0  0  0  0  0  0  0
    4.8455    6.2976    0.0000 C   0  0  0  0  0  0  0  0  0  0  0  0
    3.6331    6.9976    0.0000 C   0  0  0  0  0  0  0  0  0  0  0  0
    2.4207    6.2976    0.0000 C   0  0  0  0  0  0  0  0  0  0  0  0
    1.2124    6.9951    0.0000 O   0  0  0  0  0  0  0  0  0  0  0  0
    6.0538    6.9951    0.0000 N   0  0  0  0  0  0  0  0  0  0  0  0
    7.2662    6.2951    0.0000 C   0  0  0  0  0  0  0  0  0  0  0  0
    8.4786    6.9951    0.0000 C   0  0  0  0  0  0  0  0  0  0  0  0
    8.4786    8.3951    0.0000 O   0  0  0  0  0  0  0  0  0  0  0  0
    7.2662    9.0951    0.0000 C   0  0  0  0  0  0  0  0  0  0  0  0
    6.0538    8.3951    0.0000 C   0  0  0  0  0  0  0  0  0  0  0  0
  1  2  2  0  0  0  0
  2  3  1  0  0  0  0
  3  4  2  0  0  0  0
  4  5  1  0  0  0  0
  5  6  1  0  0  0  0
  6  1  1  0  0  0  0
  2  7  1  0  0  0  0
  4  8  1  0  0  0  0
  8  9  1  0  0  0  0
  8 10  1  0  0  0  0
 10 11  1  0  0  0  0
 11 12  2  0  0  0  0
 12 13  1  0  0  0  0
 13 14  2  0  0  0  0
 14 15  1  0  0  0  0
 15 16  2  0  0  0  0
 16 11  1  0  0  0  0
  5 17  2  0  0  0  0
 17 18  1  0  0  0  0
 18 19  2  0  0  0  0
 19 20  1  0  0  0  0
 20  6  1  0  0  0  0
 20 21  2  0  0  0  0
 18 22  1  0  0  0  0
 22 23  1  0  0  0  0
 23 24  1  0  0  0  0
 24 25  1  0  0  0  0
 25 26  1  0  0  0  0
 26 27  1  0  0  0  0
 27 22  1  0  0  0  0
M  END
>  <Mol_ID> (62)
99

>  <Formula> (62)
C21H24N4O2

>  <MolWeight> (62)
364.44086

>  <Cat> (62)
S1169

>  <Name> (62)
TGX-221

>  <Synonyms> (62)
N/A

>  <Target> (62)
PI3K

>  <Form> (62)
Free Base

>  <CAS> (62)
663619-89-4

>  <URL> (62)
http://www.selleckchem.com/products/TGX-221.html

$$$$
WZ3146.cdx
csChFnd80/05071909292D

 33 36  0  0  0  0  0  0  0  0999 V2000
    4.8413    2.1000    0.0000 C   0  0  0  0  0  0  0  0  0  0  0  0
    4.8413    0.7000    0.0000 C   0  0  0  0  0  0  0  0  0  0  0  0
    6.0538    0.0000    0.0000 C   0  0  0  0  0  0  0  0  0  0  0  0
    7.2662    0.7000    0.0000 C   0  0  0  0  0  0  0  0  0  0  0  0
    7.2662    2.1000    0.0000 C   0  0  0  0  0  0  0  0  0  0  0  0
    6.0538    2.8000    0.0000 C   0  0  0  0  0  0  0  0  0  0  0  0
    3.6331    2.7976    0.0000 N   0  0  0  0  0  0  0  0  0  0  0  0
    3.6331    4.1976    0.0000 C   0  0  0  0  0  0  0  0  0  0  0  0
    2.4207    4.8976    0.0000 C   0  0  0  0  0  0  0  0  0  0  0  0
    1.2082    4.1976    0.0000 N   0  0  0  0  0  0  0  0  0  0  0  0
    1.2082    2.7976    0.0000 C   0  0  0  0  0  0  0  0  0  0  0  0
    2.4207    2.0976    0.0000 C   0  0  0  0  0  0  0  0  0  0  0  0
    0.0000    4.8951    0.0000 C   0  0  0  0  0  0  0  0  0  0  0  0
    8.4744    0.0024    0.0000 N   0  0  0  0  0  0  0  0  0  0  0  0
    9.6826    0.7000    0.0000 C   0  0  0  0  0  0  0  0  0  0  0  0
   10.8951    0.0000    0.0000 N   0  0  0  0  0  0  0  0  0  0  0  0
   12.1075    0.7000    0.0000 C   0  0  0  0  0  0  0  0  0  0  0  0
   12.1075    2.1000    0.0000 C   0  0  0  0  0  0  0  0  0  0  0  0
   10.8951    2.8000    0.0000 C   0  0  0  0  0  0  0  0  0  0  0  0
    9.6826    2.1000    0.0000 N   0  0  0  0  0  0  0  0  0  0  0  0
   13.3157    2.7976    0.0000 Cl  0  0  0  0  0  0  0  0  0  0  0  0
   10.8951    4.1951    0.0000 O   0  0  0  0  0  0  0  0  0  0  0  0
   12.1033    4.8927    0.0000 C   0  0  0  0  0  0  0  0  0  0  0  0
   13.3157    4.1927    0.0000 C   0  0  0  0  0  0  0  0  0  0  0  0
   14.5282    4.8927    0.0000 C   0  0  0  0  0  0  0  0  0  0  0  0
   14.5282    6.2927    0.0000 C   0  0  0  0  0  0  0  0  0  0  0  0
   13.3157    6.9927    0.0000 C   0  0  0  0  0  0  0  0  0  0  0  0
   12.1033    6.2927    0.0000 C   0  0  0  0  0  0  0  0  0  0  0  0
   15.7364    4.1951    0.0000 N   0  0  0  0  0  0  0  0  0  0  0  0
   16.9446    4.8927    0.0000 C   0  0  0  0  0  0  0  0  0  0  0  0
   18.1529    4.1951    0.0000 C   0  0  0  0  0  0  0  0  0  0  0  0
   16.9446    6.2879    0.0000 O   0  0  0  0  0  0  0  0  0  0  0  0
   19.3611    4.8927    0.0000 C   0  0  0  0  0  0  0  0  0  0  0  0
  1  2  2  0  0  0  0
  2  3  1  0  0  0  0
  3  4  2  0  0  0  0
  4  5  1  0  0  0  0
  5  6  2  0  0  0  0
  6  1  1  0  0  0  0
  1  7  1  0  0  0  0
  7  8  1  0  0  0  0
  8  9  1  0  0  0  0
  9 10  1  0  0  0  0
 10 11  1  0  0  0  0
 11 12  1  0  0  0  0
 12  7  1  0  0  0  0
 10 13  1  0  0  0  0
  4 14  1  0  0  0  0
 14 15  1  0  0  0  0
 15 16  2  0  0  0  0
 16 17  1  0  0  0  0
 17 18  2  0  0  0  0
 18 19  1  0  0  0  0
 19 20  2  0  0  0  0
 20 15  1  0  0  0  0
 18 21  1  0  0  0  0
 19 22  1  0  0  0  0
 22 23  1  0  0  0  0
 23 24  2  0  0  0  0
 24 25  1  0  0  0  0
 25 26  2  0  0  0  0
 26 27  1  0  0  0  0
 27 28  2  0  0  0  0
 28 23  1  0  0  0  0
 25 29  1  0  0  0  0
 29 30  1  0  0  0  0
 30 31  1  0  0  0  0
 30 32  2  0  0  0  0
 31 33  2  0  0  0  0
M  END
>  <Mol_ID> (63)
100

>  <Formula> (63)
C24H25ClN6O2

>  <MolWeight> (63)
464.9473

>  <Cat> (63)
S1170

>  <Name> (63)
WZ3146

>  <Synonyms> (63)
N/A

>  <Target> (63)
EGFR

>  <Form> (63)
Free Base

>  <CAS> (63)
1214265-56-1

>  <URL> (63)
http://www.selleckchem.com/products/WZ3146.html

$$$$
cyc116.cdx
csChFnd80/05071909292D

 26 29  0  0  0  0  0  0  0  0999 V2000
    8.4744    4.1976    0.0000 C   0  0  0  0  0  0  0  0  0  0  0  0
    8.4744    2.7976    0.0000 N   0  0  0  0  0  0  0  0  0  0  0  0
    9.6869    2.0976    0.0000 C   0  0  0  0  0  0  0  0  0  0  0  0
   10.8993    2.7976    0.0000 C   0  0  0  0  0  0  0  0  0  0  0  0
   10.8993    4.1976    0.0000 C   0  0  0  0  0  0  0  0  0  0  0  0
    9.6869    4.8976    0.0000 N   0  0  0  0  0  0  0  0  0  0  0  0
   12.1075    4.8951    0.0000 C   0  0  0  0  0  0  0  0  0  0  0  0
    7.2662    4.8951    0.0000 N   0  0  0  0  0  0  0  0  0  0  0  0
    6.0580    4.1976    0.0000 C   0  0  0  0  0  0  0  0  0  0  0  0
    4.8455    4.8976    0.0000 C   0  0  0  0  0  0  0  0  0  0  0  0
    3.6331    4.1976    0.0000 C   0  0  0  0  0  0  0  0  0  0  0  0
    3.6331    2.7976    0.0000 C   0  0  0  0  0  0  0  0  0  0  0  0
    4.8455    2.0976    0.0000 C   0  0  0  0  0  0  0  0  0  0  0  0
    6.0580    2.7976    0.0000 C   0  0  0  0  0  0  0  0  0  0  0  0
    2.4249    2.1000    0.0000 N   0  0  0  0  0  0  0  0  0  0  0  0
    1.2124    2.8000    0.0000 C   0  0  0  0  0  0  0  0  0  0  0  0
    0.0000    2.1000    0.0000 C   0  0  0  0  0  0  0  0  0  0  0  0
    0.0000    0.7000    0.0000 O   0  0  0  0  0  0  0  0  0  0  0  0
    1.2124    0.0000    0.0000 C   0  0  0  0  0  0  0  0  0  0  0  0
    2.4249    0.7000    0.0000 C   0  0  0  0  0  0  0  0  0  0  0  0
   13.3865    4.3257    0.0000 S   0  0  0  0  0  0  0  0  0  0  0  0
   14.3233    5.3661    0.0000 C   0  0  0  0  0  0  0  0  0  0  0  0
   13.6233    6.5786    0.0000 N   0  0  0  0  0  0  0  0  0  0  0  0
   12.2539    6.2875    0.0000 C   0  0  0  0  0  0  0  0  0  0  0  0
   11.2171    7.2210    0.0000 C   0  0  0  0  0  0  0  0  0  0  0  0
   15.7108    5.2203    0.0000 N   0  0  0  0  0  0  0  0  0  0  0  0
  1  2  2  0  0  0  0
  2  3  1  0  0  0  0
  3  4  2  0  0  0  0
  4  5  1  0  0  0  0
  5  6  2  0  0  0  0
  6  1  1  0  0  0  0
  5  7  1  0  0  0  0
  1  8  1  0  0  0  0
  8  9  1  0  0  0  0
  9 10  2  0  0  0  0
 10 11  1  0  0  0  0
 11 12  2  0  0  0  0
 12 13  1  0  0  0  0
 13 14  2  0  0  0  0
 14  9  1  0  0  0  0
 12 15  1  0  0  0  0
 15 16  1  0  0  0  0
 16 17  1  0  0  0  0
 17 18  1  0  0  0  0
 18 19  1  0  0  0  0
 19 20  1  0  0  0  0
 20 15  1  0  0  0  0
  7 21  1  0  0  0  0
 21 22  1  0  0  0  0
 22 23  2  0  0  0  0
 23 24  1  0  0  0  0
 24  7  2  0  0  0  0
 24 25  1  0  0  0  0
 22 26  1  0  0  0  0
M  END
>  <Mol_ID> (64)
101

>  <Formula> (64)
C18H20N6OS

>  <MolWeight> (64)
368.456

>  <Cat> (64)
S1171

>  <Name> (64)
CYC116

>  <Synonyms> (64)
N/A

>  <Target> (64)
Aurora Kinase, VEGFR

>  <Form> (64)
Free Base

>  <CAS> (64)
693228-63-6

>  <URL> (64)
http://www.selleckchem.com/products/CYC116.html

$$$$

csChFnd80/05071909292D

 35 38  0  0  0  0  0  0  0  0999 V2000
    7.6412   -7.6926    0.0000 C   0  0  0  0  0  0  0  0  0  0  0  0
    7.6412   -9.0926    0.0000 C   0  0  0  0  0  0  0  0  0  0  0  0
    8.8537   -9.7927    0.0000 C   0  0  0  0  0  0  0  0  0  0  0  0
   10.0661   -9.0926    0.0000 C   0  0  0  0  0  0  0  0  0  0  0  0
   10.0661   -7.6926    0.0000 C   0  0  0  0  0  0  0  0  0  0  0  0
    8.8537   -6.9927    0.0000 C   0  0  0  0  0  0  0  0  0  0  0  0
    6.4330   -6.9950    0.0000 N   0  0  0  0  0  0  0  0  0  0  0  0
    6.4330   -5.5950    0.0000 C   0  0  0  0  0  0  0  0  0  0  0  0
    5.2206   -4.8950    0.0000 C   0  0  0  0  0  0  0  0  0  0  0  0
    4.0081   -5.5950    0.0000 N   0  0  0  0  0  0  0  0  0  0  0  0
    4.0081   -6.9950    0.0000 C   0  0  0  0  0  0  0  0  0  0  0  0
    5.2206   -7.6951    0.0000 C   0  0  0  0  0  0  0  0  0  0  0  0
    2.7999   -4.8975    0.0000 C   0  0  0  0  0  0  0  0  0  0  0  0
   11.2743   -9.7903    0.0000 N   0  0  0  0  0  0  0  0  0  0  0  0
   12.4826   -9.0926    0.0000 C   0  0  0  0  0  0  0  0  0  0  0  0
   13.6951   -9.7927    0.0000 N   0  0  0  0  0  0  0  0  0  0  0  0
   14.9075   -9.0926    0.0000 C   0  0  0  0  0  0  0  0  0  0  0  0
   14.9075   -7.6926    0.0000 C   0  0  0  0  0  0  0  0  0  0  0  0
   13.6951   -6.9927    0.0000 C   0  0  0  0  0  0  0  0  0  0  0  0
   12.4826   -7.6926    0.0000 N   0  0  0  0  0  0  0  0  0  0  0  0
   16.1157   -6.9950    0.0000 Cl  0  0  0  0  0  0  0  0  0  0  0  0
   13.6951   -5.5975    0.0000 O   0  0  0  0  0  0  0  0  0  0  0  0
   14.9033   -4.8999    0.0000 C   0  0  0  0  0  0  0  0  0  0  0  0
   16.1157   -5.5999    0.0000 C   0  0  0  0  0  0  0  0  0  0  0  0
   17.3282   -4.8999    0.0000 C   0  0  0  0  0  0  0  0  0  0  0  0
   17.3282   -3.4999    0.0000 C   0  0  0  0  0  0  0  0  0  0  0  0
   16.1157   -2.7999    0.0000 C   0  0  0  0  0  0  0  0  0  0  0  0
   14.9033   -3.4999    0.0000 C   0  0  0  0  0  0  0  0  0  0  0  0
   18.5364   -5.5975    0.0000 N   0  0  0  0  0  0  0  0  0  0  0  0
   19.7446   -4.8999    0.0000 C   0  0  0  0  0  0  0  0  0  0  0  0
   20.9529   -5.5975    0.0000 C   0  0  0  0  0  0  0  0  0  0  0  0
   19.7446   -3.5047    0.0000 O   0  0  0  0  0  0  0  0  0  0  0  0
   22.1611   -4.8999    0.0000 C   0  0  0  0  0  0  0  0  0  0  0  0
    8.8537  -11.1878    0.0000 O   0  0  0  0  0  0  0  0  0  0  0  0
   10.0620  -11.8854    0.0000 C   0  0  0  0  0  0  0  0  0  0  0  0
  1  2  2  0  0  0  0
  2  3  1  0  0  0  0
  3  4  2  0  0  0  0
  4  5  1  0  0  0  0
  5  6  2  0  0  0  0
  6  1  1  0  0  0  0
  1  7  1  0  0  0  0
  7  8  1  0  0  0  0
  8  9  1  0  0  0  0
  9 10  1  0  0  0  0
 10 11  1  0  0  0  0
 11 12  1  0  0  0  0
 12  7  1  0  0  0  0
 10 13  1  0  0  0  0
  4 14  1  0  0  0  0
 14 15  1  0  0  0  0
 15 16  2  0  0  0  0
 16 17  1  0  0  0  0
 17 18  2  0  0  0  0
 18 19  1  0  0  0  0
 19 20  2  0  0  0  0
 20 15  1  0  0  0  0
 18 21  1  0  0  0  0
 19 22  1  0  0  0  0
 22 23  1  0  0  0  0
 23 24  2  0  0  0  0
 24 25  1  0  0  0  0
 25 26  2  0  0  0  0
 26 27  1  0  0  0  0
 27 28  2  0  0  0  0
 28 23  1  0  0  0  0
 25 29  1  0  0  0  0
 29 30  1  0  0  0  0
 30 31  1  0  0  0  0
 30 32  2  0  0  0  0
 31 33  2  0  0  0  0
  3 34  1  0  0  0  0
 34 35  1  0  0  0  0
M  END
>  <Mol_ID> (65)
103

>  <Formula> (65)
C25H27ClN6O3

>  <MolWeight> (65)
494.97328

>  <Cat> (65)
S1173

>  <Name> (65)
WZ4002

>  <Synonyms> (65)
N/A

>  <Target> (65)
EGFR

>  <Form> (65)
Free Base

>  <CAS> (65)
1213269-23-8

>  <URL> (65)
http://www.selleckchem.com/products/WZ4002.html

$$$$

csChFnd80/05071909292D

 20 22  0  0  0  0  0  0  0  0999 V2000
    2.7999   -4.8950    0.0000 C   0  0  0  0  0  0  0  0  0  0  0  0
    2.7999   -6.2950    0.0000 C   0  0  0  0  0  0  0  0  0  0  0  0
    4.0123   -6.9950    0.0000 C   0  0  0  0  0  0  0  0  0  0  0  0
    5.2248   -6.2950    0.0000 C   0  0  0  0  0  0  0  0  0  0  0  0
    5.2248   -4.8950    0.0000 C   0  0  0  0  0  0  0  0  0  0  0  0
    4.0123   -4.1950    0.0000 C   0  0  0  0  0  0  0  0  0  0  0  0
    6.4372   -6.9950    0.0000 O   0  0  0  0  0  0  0  0  0  0  0  0
    7.6496   -6.2950    0.0000 C   0  0  0  0  0  0  0  0  0  0  0  0
    7.6496   -4.8950    0.0000 C   0  0  0  0  0  0  0  0  0  0  0  0
    6.4372   -4.1950    0.0000 C   0  0  0  0  0  0  0  0  0  0  0  0
    8.8579   -6.9926    0.0000 C   0  0  0  0  0  0  0  0  0  0  0  0
    8.8579   -8.3926    0.0000 C   0  0  0  0  0  0  0  0  0  0  0  0
   10.0703   -9.0926    0.0000 C   0  0  0  0  0  0  0  0  0  0  0  0
   11.2827   -8.3926    0.0000 C   0  0  0  0  0  0  0  0  0  0  0  0
   11.2827   -6.9926    0.0000 C   0  0  0  0  0  0  0  0  0  0  0  0
   10.0703   -6.2926    0.0000 C   0  0  0  0  0  0  0  0  0  0  0  0
    6.4372   -2.7999    0.0000 O   0  0  0  0  0  0  0  0  0  0  0  0
   10.0703   -4.8975    0.0000 N   0  0  0  0  0  0  0  0  0  0  0  0
   12.4910   -6.2950    0.0000 O   0  0  0  0  0  0  0  0  0  0  0  0
   13.6992   -6.9926    0.0000 C   0  0  0  0  0  0  0  0  0  0  0  0
  1  2  2  0  0  0  0
  2  3  1  0  0  0  0
  3  4  2  0  0  0  0
  4  5  1  0  0  0  0
  5  6  2  0  0  0  0
  6  1  1  0  0  0  0
  4  7  1  0  0  0  0
  7  8  1  0  0  0  0
  8  9  2  0  0  0  0
  9 10  1  0  0  0  0
 10  5  1  0  0  0  0
  8 11  1  0  0  0  0
 11 12  2  0  0  0  0
 12 13  1  0  0  0  0
 13 14  2  0  0  0  0
 14 15  1  0  0  0  0
 15 16  2  0  0  0  0
 16 11  1  0  0  0  0
 10 17  2  0  0  0  0
 16 18  1  0  0  0  0
 15 19  1  0  0  0  0
 19 20  1  0  0  0  0
M  END
>  <Mol_ID> (66)
106

>  <Formula> (66)
C16H13NO3

>  <MolWeight> (66)
267.27932

>  <Cat> (66)
S1177

>  <Name> (66)
PD98059

>  <Synonyms> (66)
N/A

>  <Target> (66)
MEK

>  <Form> (66)
Free Base

>  <CAS> (66)
167869-21-8

>  <URL> (66)
http://www.selleckchem.com/products/PD-98059.html

$$$$
BAY 73-4506.cdx
csChFnd80/05071909292D

 33 35  0  0  0  0  0  0  0  0999 V2000
    2.8541    4.8579    0.0000 C   0  0  0  0  0  0  0  0  0  0  0  0
    2.1390    3.6487    0.0000 N   0  0  0  0  0  0  0  0  0  0  0  0
    2.8287    2.4247    0.0000 C   0  0  0  0  0  0  0  0  0  0  0  0
    4.2335    2.4101    0.0000 C   0  0  0  0  0  0  0  0  0  0  0  0
    4.9486    3.6193    0.0000 C   0  0  0  0  0  0  0  0  0  0  0  0
    4.2589    4.8432    0.0000 C   0  0  0  0  0  0  0  0  0  0  0  0
    2.1161    1.2197    0.0000 C   0  0  0  0  0  0  0  0  0  0  0  0
    2.8034    0.0000    0.0000 O   0  0  0  0  0  0  0  0  0  0  0  0
    0.7161    1.2343    0.0000 N   0  0  0  0  0  0  0  0  0  0  0  0
    0.0000    0.0313    0.0000 C   0  0  0  0  0  0  0  0  0  0  0  0
    6.3485    3.6047    0.0000 O   0  0  0  0  0  0  0  0  0  0  0  0
    7.0674    4.8060    0.0000 C   0  0  0  0  0  0  0  0  0  0  0  0
    8.4719    4.7732    0.0000 C   0  0  0  0  0  0  0  0  0  0  0  0
    9.2025    5.9732    0.0000 C   0  0  0  0  0  0  0  0  0  0  0  0
    8.4719    7.2059    0.0000 C   0  0  0  0  0  0  0  0  0  0  0  0
    7.0674    7.2059    0.0000 C   0  0  0  0  0  0  0  0  0  0  0  0
    6.3368    5.9732    0.0000 C   0  0  0  0  0  0  0  0  0  0  0  0
    9.1650    8.4223    0.0000 N   0  0  0  0  0  0  0  0  0  0  0  0
   10.6025    5.9648    0.0000 F   0  0  0  0  0  0  0  0  0  0  0  0
   10.5649    8.4303    0.0000 C   0  0  0  0  0  0  0  0  0  0  0  0
   11.2557    9.6480    0.0000 N   0  0  0  0  0  0  0  0  0  0  0  0
   11.2730    7.2226    0.0000 O   0  0  0  0  0  0  0  0  0  0  0  0
   12.6557    9.6587    0.0000 C   0  0  0  0  0  0  0  0  0  0  0  0
   13.3766    8.4529    0.0000 C   0  0  0  0  0  0  0  0  0  0  0  0
   14.7813    8.4529    0.0000 C   0  0  0  0  0  0  0  0  0  0  0  0
   15.4651    9.6587    0.0000 C   0  0  0  0  0  0  0  0  0  0  0  0
   14.7813   10.8645    0.0000 C   0  0  0  0  0  0  0  0  0  0  0  0
   13.3766   10.8645    0.0000 C   0  0  0  0  0  0  0  0  0  0  0  0
   16.8651    9.6587    0.0000 Cl  0  0  0  0  0  0  0  0  0  0  0  0
   15.4860   12.0742    0.0000 C   0  0  0  0  0  0  0  0  0  0  0  0
   14.7907   13.2893    0.0000 F   0  0  0  0  0  0  0  0  0  0  0  0
   16.8860   12.0688    0.0000 F   0  0  0  0  0  0  0  0  0  0  0  0
   16.1907   13.2839    0.0000 F   0  0  0  0  0  0  0  0  0  0  0  0
  1  2  2  0  0  0  0
  2  3  1  0  0  0  0
  3  4  2  0  0  0  0
  4  5  1  0  0  0  0
  5  6  2  0  0  0  0
  6  1  1  0  0  0  0
  3  7  1  0  0  0  0
  7  8  2  0  0  0  0
  7  9  1  0  0  0  0
  9 10  1  0  0  0  0
  5 11  1  0  0  0  0
 11 12  1  0  0  0  0
 12 13  2  0  0  0  0
 13 14  1  0  0  0  0
 14 15  2  0  0  0  0
 15 16  1  0  0  0  0
 16 17  2  0  0  0  0
 17 12  1  0  0  0  0
 15 18  1  0  0  0  0
 14 19  1  0  0  0  0
 18 20  1  0  0  0  0
 20 21  1  0  0  0  0
 20 22  2  0  0  0  0
 21 23  1  0  0  0  0
 23 24  2  0  0  0  0
 24 25  1  0  0  0  0
 25 26  2  0  0  0  0
 26 27  1  0  0  0  0
 27 28  2  0  0  0  0
 28 23  1  0  0  0  0
 26 29  1  0  0  0  0
 27 30  1  0  0  0  0
 30 31  1  0  0  0  0
 30 32  1  0  0  0  0
 30 33  1  0  0  0  0
M  END
>  <Mol_ID> (67)
107

>  <Formula> (67)
C21H15ClF4N4O3

>  <MolWeight> (67)
482.8154128

>  <Cat> (67)
S1178

>  <Name> (67)
Regorafenib (BAY 73-4506)

>  <Synonyms> (67)
BAY 73-4506

>  <Target> (67)
c-Kit, Raf, VEGFR

>  <Form> (67)
Free Base

>  <CAS> (67)
755037-03-7

>  <URL> (67)
http://www.selleckchem.com/products/BAY-73-4506.html

$$$$
wz8040.cdx
csChFnd80/05071909292D

 33 36  0  0  0  0  0  0  0  0999 V2000
    4.8413    2.1000    0.0000 C   0  0  0  0  0  0  0  0  0  0  0  0
    4.8413    0.7000    0.0000 C   0  0  0  0  0  0  0  0  0  0  0  0
    6.0538    0.0000    0.0000 C   0  0  0  0  0  0  0  0  0  0  0  0
    7.2662    0.7000    0.0000 C   0  0  0  0  0  0  0  0  0  0  0  0
    7.2662    2.1000    0.0000 C   0  0  0  0  0  0  0  0  0  0  0  0
    6.0538    2.8000    0.0000 C   0  0  0  0  0  0  0  0  0  0  0  0
    3.6331    2.7976    0.0000 N   0  0  0  0  0  0  0  0  0  0  0  0
    3.6331    4.1976    0.0000 C   0  0  0  0  0  0  0  0  0  0  0  0
    2.4207    4.8976    0.0000 C   0  0  0  0  0  0  0  0  0  0  0  0
    1.2082    4.1976    0.0000 N   0  0  0  0  0  0  0  0  0  0  0  0
    1.2082    2.7976    0.0000 C   0  0  0  0  0  0  0  0  0  0  0  0
    2.4207    2.0976    0.0000 C   0  0  0  0  0  0  0  0  0  0  0  0
    0.0000    4.8951    0.0000 C   0  0  0  0  0  0  0  0  0  0  0  0
    8.4744    0.0024    0.0000 N   0  0  0  0  0  0  0  0  0  0  0  0
    9.6826    0.7000    0.0000 C   0  0  0  0  0  0  0  0  0  0  0  0
   10.8951    0.0000    0.0000 N   0  0  0  0  0  0  0  0  0  0  0  0
   12.1075    0.7000    0.0000 C   0  0  0  0  0  0  0  0  0  0  0  0
   12.1075    2.1000    0.0000 C   0  0  0  0  0  0  0  0  0  0  0  0
   10.8951    2.8000    0.0000 C   0  0  0  0  0  0  0  0  0  0  0  0
    9.6826    2.1000    0.0000 N   0  0  0  0  0  0  0  0  0  0  0  0
   13.3157    2.7976    0.0000 Cl  0  0  0  0  0  0  0  0  0  0  0  0
   10.8951    4.1951    0.0000 S   0  0  0  0  0  0  0  0  0  0  0  0
   12.1033    4.8927    0.0000 C   0  0  0  0  0  0  0  0  0  0  0  0
   13.3157    4.1927    0.0000 C   0  0  0  0  0  0  0  0  0  0  0  0
   14.5282    4.8927    0.0000 C   0  0  0  0  0  0  0  0  0  0  0  0
   14.5282    6.2927    0.0000 C   0  0  0  0  0  0  0  0  0  0  0  0
   13.3157    6.9927    0.0000 C   0  0  0  0  0  0  0  0  0  0  0  0
   12.1033    6.2927    0.0000 C   0  0  0  0  0  0  0  0  0  0  0  0
   15.7364    4.1951    0.0000 N   0  0  0  0  0  0  0  0  0  0  0  0
   16.9446    4.8927    0.0000 C   0  0  0  0  0  0  0  0  0  0  0  0
   18.1529    4.1951    0.0000 C   0  0  0  0  0  0  0  0  0  0  0  0
   16.9446    6.2878    0.0000 O   0  0  0  0  0  0  0  0  0  0  0  0
   19.3611    4.8927    0.0000 C   0  0  0  0  0  0  0  0  0  0  0  0
  1  2  2  0  0  0  0
  2  3  1  0  0  0  0
  3  4  2  0  0  0  0
  4  5  1  0  0  0  0
  5  6  2  0  0  0  0
  6  1  1  0  0  0  0
  1  7  1  0  0  0  0
  7  8  1  0  0  0  0
  8  9  1  0  0  0  0
  9 10  1  0  0  0  0
 10 11  1  0  0  0  0
 11 12  1  0  0  0  0
 12  7  1  0  0  0  0
 10 13  1  0  0  0  0
  4 14  1  0  0  0  0
 14 15  1  0  0  0  0
 15 16  2  0  0  0  0
 16 17  1  0  0  0  0
 17 18  2  0  0  0  0
 18 19  1  0  0  0  0
 19 20  2  0  0  0  0
 20 15  1  0  0  0  0
 18 21  1  0  0  0  0
 19 22  1  0  0  0  0
 22 23  1  0  0  0  0
 23 24  2  0  0  0  0
 24 25  1  0  0  0  0
 25 26  2  0  0  0  0
 26 27  1  0  0  0  0
 27 28  2  0  0  0  0
 28 23  1  0  0  0  0
 25 29  1  0  0  0  0
 29 30  1  0  0  0  0
 30 31  1  0  0  0  0
 30 32  2  0  0  0  0
 31 33  2  0  0  0  0
M  END
>  <Mol_ID> (68)
108

>  <Formula> (68)
C24H25ClN6OS

>  <MolWeight> (68)
481.0129

>  <Cat> (68)
S1179

>  <Name> (68)
WZ8040

>  <Synonyms> (68)
N/A

>  <Target> (68)
EGFR

>  <Form> (68)
Free Base

>  <CAS> (68)
1214265-57-2

>  <URL> (68)
http://www.selleckchem.com/products/WZ8040.html

$$$$
ENMD-2076.cdx
csChFnd80/05071909292D

 28 31  0  0  0  0  0  0  0  0999 V2000
    6.0622    2.8000    0.0000 C   0  0  0  0  0  0  0  0  0  0  0  0
    6.0622    4.2000    0.0000 N   0  0  0  0  0  0  0  0  0  0  0  0
    7.2746    4.9000    0.0000 C   0  0  0  0  0  0  0  0  0  0  0  0
    8.4870    4.2000    0.0000 C   0  0  0  0  0  0  0  0  0  0  0  0
    8.4870    2.8000    0.0000 C   0  0  0  0  0  0  0  0  0  0  0  0
    7.2746    2.1000    0.0000 N   0  0  0  0  0  0  0  0  0  0  0  0
    7.2746    6.3000    0.0000 N   0  0  0  0  0  0  0  0  0  0  0  0
    4.8497    2.1000    0.0000 C   0  0  0  0  0  0  0  0  0  0  0  0
    3.6373    2.8000    0.0000 C   0  0  0  0  0  0  0  0  0  0  0  0
    2.4249    2.1000    0.0000 C   0  0  0  0  0  0  0  0  0  0  0  0
    2.4249    0.7000    0.0000 C   0  0  0  0  0  0  0  0  0  0  0  0
    1.2124    0.0000    0.0000 C   0  0  0  0  0  0  0  0  0  0  0  0
    0.0000    0.7000    0.0000 C   0  0  0  0  0  0  0  0  0  0  0  0
    0.0000    2.1000    0.0000 C   0  0  0  0  0  0  0  0  0  0  0  0
    1.2124    2.8000    0.0000 C   0  0  0  0  0  0  0  0  0  0  0  0
    4.5464    8.6834    0.0000 N   0  0  0  0  0  0  0  0  0  0  0  0
    5.9158    8.3923    0.0000 N   0  0  0  0  0  0  0  0  0  0  0  0
    6.0622    7.0000    0.0000 C   0  0  0  0  0  0  0  0  0  0  0  0
    4.7832    6.4306    0.0000 C   0  0  0  0  0  0  0  0  0  0  0  0
    3.8464    7.4710    0.0000 C   0  0  0  0  0  0  0  0  0  0  0  0
    2.4541    7.3246    0.0000 C   0  0  0  0  0  0  0  0  0  0  0  0
    9.6995    2.1000    0.0000 N   0  0  0  0  0  0  0  0  0  0  0  0
   10.9119    2.8000    0.0000 C   0  0  0  0  0  0  0  0  0  0  0  0
   12.1244    2.1000    0.0000 C   0  0  0  0  0  0  0  0  0  0  0  0
   12.1244    0.7000    0.0000 N   0  0  0  0  0  0  0  0  0  0  0  0
   10.9119    0.0000    0.0000 C   0  0  0  0  0  0  0  0  0  0  0  0
    9.6995    0.7000    0.0000 C   0  0  0  0  0  0  0  0  0  0  0  0
   13.3368    0.0000    0.0000 C   0  0  0  0  0  0  0  0  0  0  0  0
  1  2  1  0  0  0  0
  2  3  2  0  0  0  0
  3  4  1  0  0  0  0
  4  5  2  0  0  0  0
  5  6  1  0  0  0  0
  1  6  2  0  0  0  0
  3  7  1  0  0  0  0
  8  9  2  0  0  0  0
 10 11  1  0  0  0  0
 11 12  2  0  0  0  0
 12 13  1  0  0  0  0
 13 14  2  0  0  0  0
 14 15  1  0  0  0  0
 10 15  2  0  0  0  0
  9 10  1  0  0  0  0
  1  8  1  0  0  0  0
 16 17  1  0  0  0  0
 17 18  2  0  0  0  0
 18 19  1  0  0  0  0
 19 20  2  0  0  0  0
 16 20  1  0  0  0  0
 20 21  1  0  0  0  0
  7 18  1  0  0  0  0
 22 23  1  0  0  0  0
 23 24  1  0  0  0  0
 24 25  1  0  0  0  0
 25 26  1  0  0  0  0
 26 27  1  0  0  0  0
 22 27  1  0  0  0  0
 25 28  1  0  0  0  0
  5 22  1  0  0  0  0
M  END
>  <Mol_ID> (69)
110

>  <Formula> (69)
C21H25N7

>  <MolWeight> (69)
375.4701

>  <Cat> (69)
S1181

>  <Name> (69)
ENMD-2076

>  <Synonyms> (69)
N/A 

>  <Target> (69)
Flt, Aurora Kinase, VEGFR

>  <Form> (69)
Tartaric Acid 

>  <CAS> (69)
934353-76-1

>  <URL> (69)
http://www.selleckchem.com/products/ENMD-2076.html

$$$$
S119401 CUDC-101.cdx
csChFnd80/05071909292D

 32 34  0  0  0  0  0  0  0  0999 V2000
   14.5113    2.1000    0.0000 C   0  0  0  0  0  0  0  0  0  0  0  0
   14.5113    0.7000    0.0000 C   0  0  0  0  0  0  0  0  0  0  0  0
   15.7238    0.0000    0.0000 N   0  0  0  0  0  0  0  0  0  0  0  0
   16.9362    0.7000    0.0000 C   0  0  0  0  0  0  0  0  0  0  0  0
   16.9362    2.1000    0.0000 N   0  0  0  0  0  0  0  0  0  0  0  0
   15.7238    2.8000    0.0000 C   0  0  0  0  0  0  0  0  0  0  0  0
   13.2989    2.8000    0.0000 C   0  0  0  0  0  0  0  0  0  0  0  0
   12.0865    2.1000    0.0000 C   0  0  0  0  0  0  0  0  0  0  0  0
   12.0865    0.7000    0.0000 C   0  0  0  0  0  0  0  0  0  0  0  0
   13.2989    0.0000    0.0000 C   0  0  0  0  0  0  0  0  0  0  0  0
   15.7238    4.1951    0.0000 N   0  0  0  0  0  0  0  0  0  0  0  0
   16.9362    4.8951    0.0000 C   0  0  0  0  0  0  0  0  0  0  0  0
   18.1487    4.1951    0.0000 C   0  0  0  0  0  0  0  0  0  0  0  0
   19.3611    4.8951    0.0000 C   0  0  0  0  0  0  0  0  0  0  0  0
   19.3611    6.2951    0.0000 C   0  0  0  0  0  0  0  0  0  0  0  0
   18.1487    6.9951    0.0000 C   0  0  0  0  0  0  0  0  0  0  0  0
   16.9362    6.2951    0.0000 C   0  0  0  0  0  0  0  0  0  0  0  0
   20.5693    4.1976    0.0000 C   0  0  0  0  0  0  0  0  0  0  0  0
   21.7818    3.4976    0.0000 C   0  0  0  0  0  0  0  0  0  0  0  0
   10.8782    0.0024    0.0000 O   0  0  0  0  0  0  0  0  0  0  0  0
    9.6700    0.7000    0.0000 C   0  0  0  0  0  0  0  0  0  0  0  0
   10.8782    2.7976    0.0000 O   0  0  0  0  0  0  0  0  0  0  0  0
    9.6700    2.1000    0.0000 C   0  0  0  0  0  0  0  0  0  0  0  0
    8.4618    2.7976    0.0000 C   0  0  0  0  0  0  0  0  0  0  0  0
    7.2536    2.1000    0.0000 C   0  0  0  0  0  0  0  0  0  0  0  0
    6.0453    2.7976    0.0000 C   0  0  0  0  0  0  0  0  0  0  0  0
    4.8371    2.1000    0.0000 C   0  0  0  0  0  0  0  0  0  0  0  0
    3.6289    2.7976    0.0000 C   0  0  0  0  0  0  0  0  0  0  0  0
    2.4207    2.1000    0.0000 C   0  0  0  0  0  0  0  0  0  0  0  0
    1.2124    2.7976    0.0000 N   0  0  0  0  0  0  0  0  0  0  0  0
    2.4207    0.7000    0.0000 O   0  0  0  0  0  0  0  0  0  0  0  0
    0.0000    2.0976    0.0000 O   0  0  0  0  0  0  0  0  0  0  0  0
  1  2  2  0  0  0  0
  2  3  1  0  0  0  0
  3  4  2  0  0  0  0
  4  5  1  0  0  0  0
  5  6  2  0  0  0  0
  6  1  1  0  0  0  0
  1  7  1  0  0  0  0
  7  8  2  0  0  0  0
  8  9  1  0  0  0  0
  9 10  2  0  0  0  0
 10  2  1  0  0  0  0
  6 11  1  0  0  0  0
 11 12  1  0  0  0  0
 12 13  2  0  0  0  0
 13 14  1  0  0  0  0
 14 15  2  0  0  0  0
 15 16  1  0  0  0  0
 16 17  2  0  0  0  0
 17 12  1  0  0  0  0
 14 18  1  0  0  0  0
 18 19  3  0  0  0  0
  9 20  1  0  0  0  0
 20 21  1  0  0  0  0
  8 22  1  0  0  0  0
 22 23  1  0  0  0  0
 23 24  1  0  0  0  0
 24 25  1  0  0  0  0
 25 26  1  0  0  0  0
 26 27  1  0  0  0  0
 27 28  1  0  0  0  0
 28 29  1  0  0  0  0
 29 30  1  0  0  0  0
 29 31  2  0  0  0  0
 30 32  1  0  0  0  0
M  END
>  <Mol_ID> (70)
120

>  <Formula> (70)
C24H26N4O4

>  <MolWeight> (70)
434.48764

>  <Cat> (70)
S1194

>  <Name> (70)
CUDC-101

>  <Synonyms> (70)
N/A

>  <Target> (70)
HDAC, EGFR, HER2

>  <Form> (70)
Free Base

>  <CAS> (70)
1012054-59-9

>  <URL> (70)
http://www.selleckchem.com/products/CUDC-101.html

$$$$
AV-951.cdx
csChFnd80/05071909292D

 32 35  0  0  0  0  0  0  0  0999 V2000
    8.3854    2.4165    0.0000 C   0  0  0  0  0  0  0  0  0  0  0  0
    9.0854    1.2040    0.0000 C   0  0  0  0  0  0  0  0  0  0  0  0
   10.4854    1.2040    0.0000 C   0  0  0  0  0  0  0  0  0  0  0  0
   11.1854    2.4165    0.0000 C   0  0  0  0  0  0  0  0  0  0  0  0
   10.4854    3.6289    0.0000 C   0  0  0  0  0  0  0  0  0  0  0  0
    9.0854    3.6289    0.0000 C   0  0  0  0  0  0  0  0  0  0  0  0
    6.9903    2.4165    0.0000 O   0  0  0  0  0  0  0  0  0  0  0  0
    6.2927    3.6247    0.0000 C   0  0  0  0  0  0  0  0  0  0  0  0
   11.1830    4.8371    0.0000 Cl  0  0  0  0  0  0  0  0  0  0  0  0
   12.5806    2.4165    0.0000 N   0  0  0  0  0  0  0  0  0  0  0  0
   13.2781    1.2082    0.0000 C   0  0  0  0  0  0  0  0  0  0  0  0
   12.5806    0.0000    0.0000 O   0  0  0  0  0  0  0  0  0  0  0  0
   14.6733    1.2082    0.0000 N   0  0  0  0  0  0  0  0  0  0  0  0
   15.3708    2.4165    0.0000 C   0  0  0  0  0  0  0  0  0  0  0  0
   16.7632    2.5628    0.0000 C   0  0  0  0  0  0  0  0  0  0  0  0
   17.0543    3.9322    0.0000 C   0  0  0  0  0  0  0  0  0  0  0  0
   15.8418    4.6322    0.0000 O   0  0  0  0  0  0  0  0  0  0  0  0
   14.8014    3.6954    0.0000 N   0  0  0  0  0  0  0  0  0  0  0  0
   18.3288    4.4997    0.0000 C   0  0  0  0  0  0  0  0  0  0  0  0
    6.9927    4.8371    0.0000 C   0  0  0  0  0  0  0  0  0  0  0  0
    6.2927    6.0496    0.0000 C   0  0  0  0  0  0  0  0  0  0  0  0
    4.8927    6.0496    0.0000 N   0  0  0  0  0  0  0  0  0  0  0  0
    4.1927    4.8371    0.0000 C   0  0  0  0  0  0  0  0  0  0  0  0
    4.8927    3.6247    0.0000 C   0  0  0  0  0  0  0  0  0  0  0  0
    2.7927    4.8371    0.0000 C   0  0  0  0  0  0  0  0  0  0  0  0
    2.0927    3.6247    0.0000 C   0  0  0  0  0  0  0  0  0  0  0  0
    2.7927    2.4122    0.0000 C   0  0  0  0  0  0  0  0  0  0  0  0
    4.1927    2.4122    0.0000 C   0  0  0  0  0  0  0  0  0  0  0  0
    0.6976    3.6247    0.0000 O   0  0  0  0  0  0  0  0  0  0  0  0
    0.0000    4.8329    0.0000 C   0  0  0  0  0  0  0  0  0  0  0  0
    2.0951    1.2040    0.0000 O   0  0  0  0  0  0  0  0  0  0  0  0
    0.7000    1.2040    0.0000 C   0  0  0  0  0  0  0  0  0  0  0  0
  1  2  2  0  0  0  0
  2  3  1  0  0  0  0
  3  4  2  0  0  0  0
  4  5  1  0  0  0  0
  5  6  2  0  0  0  0
  6  1  1  0  0  0  0
  1  7  1  0  0  0  0
  7  8  1  0  0  0  0
  5  9  1  0  0  0  0
  4 10  1  0  0  0  0
 10 11  1  0  0  0  0
 11 12  2  0  0  0  0
 11 13  1  0  0  0  0
 13 14  1  0  0  0  0
 14 15  1  0  0  0  0
 15 16  2  0  0  0  0
 16 17  1  0  0  0  0
 17 18  1  0  0  0  0
 18 14  2  0  0  0  0
 16 19  1  0  0  0  0
  8 20  2  0  0  0  0
 20 21  1  0  0  0  0
 21 22  2  0  0  0  0
 22 23  1  0  0  0  0
 23 24  2  0  0  0  0
 24  8  1  0  0  0  0
 23 25  1  0  0  0  0
 25 26  2  0  0  0  0
 26 27  1  0  0  0  0
 27 28  2  0  0  0  0
 28 24  1  0  0  0  0
 26 29  1  0  0  0  0
 29 30  1  0  0  0  0
 27 31  1  0  0  0  0
 31 32  1  0  0  0  0
M  END
>  <Mol_ID> (71)
125

>  <Formula> (71)
C22H19ClN4O5

>  <MolWeight> (71)
454.86306

>  <Cat> (71)
S1207

>  <Name> (71)
Tivozanib (AV-951)

>  <Synonyms> (71)
N/A 

>  <Target> (71)
VEGFR, c-Kit, PDGFR

>  <Form> (71)
Free Base

>  <CAS> (71)
475108-18-0

>  <URL> (71)
http://www.selleckchem.com/products/AV-951.html

$$$$
OSI-930.cdx
csChFnd80/05071909292D

 31 34  0  0  0  0  0  0  0  0999 V2000
    0.0000    2.1000    0.0000 C   0  0  0  0  0  0  0  0  0  0  0  0
    0.0000    0.7000    0.0000 C   0  0  0  0  0  0  0  0  0  0  0  0
    1.2124    0.0000    0.0000 C   0  0  0  0  0  0  0  0  0  0  0  0
    2.4249    0.7000    0.0000 C   0  0  0  0  0  0  0  0  0  0  0  0
    2.4249    2.1000    0.0000 C   0  0  0  0  0  0  0  0  0  0  0  0
    1.2124    2.8000    0.0000 C   0  0  0  0  0  0  0  0  0  0  0  0
    3.6373    0.0000    0.0000 N   0  0  0  0  0  0  0  0  0  0  0  0
    4.8497    0.7000    0.0000 C   0  0  0  0  0  0  0  0  0  0  0  0
    4.8497    2.1000    0.0000 C   0  0  0  0  0  0  0  0  0  0  0  0
    3.6373    2.8000    0.0000 C   0  0  0  0  0  0  0  0  0  0  0  0
    3.6373    4.1951    0.0000 C   0  0  0  0  0  0  0  0  0  0  0  0
    4.8455    4.8927    0.0000 N   0  0  0  0  0  0  0  0  0  0  0  0
    4.8455    6.2879    0.0000 C   0  0  0  0  0  0  0  0  0  0  0  0
    5.9782    7.1107    0.0000 C   0  0  0  0  0  0  0  0  0  0  0  0
    5.5455    8.4422    0.0000 S   0  0  0  0  0  0  0  0  0  0  0  0
    4.1455    8.4422    0.0000 C   0  0  0  0  0  0  0  0  0  0  0  0
    3.7129    7.1107    0.0000 C   0  0  0  0  0  0  0  0  0  0  0  0
    7.3050    6.6796    0.0000 C   0  0  0  0  0  0  0  0  0  0  0  0
    8.3418    7.6132    0.0000 N   0  0  0  0  0  0  0  0  0  0  0  0
    7.5951    5.3150    0.0000 O   0  0  0  0  0  0  0  0  0  0  0  0
    9.6687    7.1820    0.0000 C   0  0  0  0  0  0  0  0  0  0  0  0
    9.9597    5.8126    0.0000 C   0  0  0  0  0  0  0  0  0  0  0  0
   11.2912    5.3800    0.0000 C   0  0  0  0  0  0  0  0  0  0  0  0
   12.3316    6.3168    0.0000 C   0  0  0  0  0  0  0  0  0  0  0  0
   12.0405    7.6862    0.0000 C   0  0  0  0  0  0  0  0  0  0  0  0
   10.7091    8.1188    0.0000 C   0  0  0  0  0  0  0  0  0  0  0  0
   13.6585    5.8857    0.0000 O   0  0  0  0  0  0  0  0  0  0  0  0
   14.6953    6.8192    0.0000 C   0  0  0  0  0  0  0  0  0  0  0  0
   16.0221    6.3881    0.0000 F   0  0  0  0  0  0  0  0  0  0  0  0
   14.4052    8.1839    0.0000 F   0  0  0  0  0  0  0  0  0  0  0  0
   15.7321    7.7527    0.0000 F   0  0  0  0  0  0  0  0  0  0  0  0
  1  2  2  0  0  0  0
  2  3  1  0  0  0  0
  3  4  2  0  0  0  0
  4  5  1  0  0  0  0
  5  6  2  0  0  0  0
  6  1  1  0  0  0  0
  4  7  1  0  0  0  0
  7  8  2  0  0  0  0
  8  9  1  0  0  0  0
  9 10  2  0  0  0  0
 10  5  1  0  0  0  0
 10 11  1  0  0  0  0
 11 12  1  0  0  0  0
 12 13  1  0  0  0  0
 13 14  2  0  0  0  0
 14 15  1  0  0  0  0
 15 16  1  0  0  0  0
 16 17  2  0  0  0  0
 17 13  1  0  0  0  0
 14 18  1  0  0  0  0
 18 19  1  0  0  0  0
 18 20  2  0  0  0  0
 19 21  1  0  0  0  0
 21 22  2  0  0  0  0
 22 23  1  0  0  0  0
 23 24  2  0  0  0  0
 24 25  1  0  0  0  0
 25 26  2  0  0  0  0
 26 21  1  0  0  0  0
 24 27  1  0  0  0  0
 27 28  1  0  0  0  0
 28 29  1  0  0  0  0
 28 30  1  0  0  0  0
 28 31  1  0  0  0  0
M  END
>  <Mol_ID> (72)
132

>  <Formula> (72)
C22H16F3N3O2S

>  <MolWeight> (72)
443.4415496

>  <Cat> (72)
S1220

>  <Name> (72)
OSI-930

>  <Synonyms> (72)
N/A

>  <Target> (72)
c-Kit, VEGFR

>  <Form> (72)
Free Base

>  <CAS> (72)
728033-96-3

>  <URL> (72)
http://www.selleckchem.com/products/OSI-930.html

$$$$
KU-0063794.cdx
csChFnd80/05071909292D

 34 38  0  0  0  0  0  0  0  0999 V2000
    4.8413    6.2903    0.0000 N   0  0  0  0  0  0  0  0  0  0  0  0
    4.8413    4.8903    0.0000 C   0  0  0  0  0  0  0  0  0  0  0  0
    6.0538    4.1903    0.0000 N   0  0  0  0  0  0  0  0  0  0  0  0
    7.2662    4.8903    0.0000 C   0  0  0  0  0  0  0  0  0  0  0  0
    7.2662    6.2903    0.0000 C   0  0  0  0  0  0  0  0  0  0  0  0
    6.0538    6.9903    0.0000 C   0  0  0  0  0  0  0  0  0  0  0  0
    8.4786    4.1903    0.0000 N   0  0  0  0  0  0  0  0  0  0  0  0
    9.6911    4.8903    0.0000 C   0  0  0  0  0  0  0  0  0  0  0  0
    9.6911    6.2903    0.0000 C   0  0  0  0  0  0  0  0  0  0  0  0
    8.4786    6.9903    0.0000 C   0  0  0  0  0  0  0  0  0  0  0  0
    3.6331    4.1927    0.0000 N   0  0  0  0  0  0  0  0  0  0  0  0
    2.4207    4.8927    0.0000 C   0  0  0  0  0  0  0  0  0  0  0  0
    1.2082    4.1927    0.0000 C   0  0  2  0  0  0  0  0  0  0  0  0
    1.2082    2.7927    0.0000 O   0  0  0  0  0  0  0  0  0  0  0  0
    2.4207    2.0927    0.0000 C   0  0  2  0  0  0  0  0  0  0  0  0
    3.6331    2.7927    0.0000 C   0  0  0  0  0  0  0  0  0  0  0  0
    0.0000    4.8903    0.0000 C   0  0  0  0  0  0  0  0  0  0  0  0
    2.4207    0.6976    0.0000 C   0  0  0  0  0  0  0  0  0  0  0  0
    6.0538    8.3854    0.0000 N   0  0  0  0  0  0  0  0  0  0  0  0
    7.2662    9.0854    0.0000 C   0  0  0  0  0  0  0  0  0  0  0  0
    7.2662   10.4854    0.0000 C   0  0  0  0  0  0  0  0  0  0  0  0
    6.0538   11.1854    0.0000 O   0  0  0  0  0  0  0  0  0  0  0  0
    4.8413   10.4854    0.0000 C   0  0  0  0  0  0  0  0  0  0  0  0
    4.8413    9.0854    0.0000 C   0  0  0  0  0  0  0  0  0  0  0  0
   10.8993    4.1927    0.0000 C   0  0  0  0  0  0  0  0  0  0  0  0
   10.8993    2.7927    0.0000 C   0  0  0  0  0  0  0  0  0  0  0  0
   12.1117    2.0927    0.0000 C   0  0  0  0  0  0  0  0  0  0  0  0
   13.3242    2.7927    0.0000 C   0  0  0  0  0  0  0  0  0  0  0  0
   13.3242    4.1927    0.0000 C   0  0  0  0  0  0  0  0  0  0  0  0
   12.1117    4.8927    0.0000 C   0  0  0  0  0  0  0  0  0  0  0  0
   12.1117    0.6976    0.0000 C   0  0  0  0  0  0  0  0  0  0  0  0
   13.3200    0.0000    0.0000 O   0  0  0  0  0  0  0  0  0  0  0  0
   14.5324    2.0951    0.0000 O   0  0  0  0  0  0  0  0  0  0  0  0
   15.7448    2.7951    0.0000 C   0  0  0  0  0  0  0  0  0  0  0  0
  1  2  2  0  0  0  0
  2  3  1  0  0  0  0
  3  4  2  0  0  0  0
  4  5  1  0  0  0  0
  5  6  2  0  0  0  0
  6  1  1  0  0  0  0
  4  7  1  0  0  0  0
  7  8  2  0  0  0  0
  8  9  1  0  0  0  0
  9 10  2  0  0  0  0
 10  5  1  0  0  0  0
  2 11  1  0  0  0  0
 11 12  1  0  0  0  0
 12 13  1  0  0  0  0
 13 14  1  0  0  0  0
 14 15  1  0  0  0  0
 15 16  1  0  0  0  0
 16 11  1  0  0  0  0
 13 17  1  6  0  0  0
 15 18  1  6  0  0  0
  6 19  1  0  0  0  0
 19 20  1  0  0  0  0
 20 21  1  0  0  0  0
 21 22  1  0  0  0  0
 22 23  1  0  0  0  0
 23 24  1  0  0  0  0
 24 19  1  0  0  0  0
  8 25  1  0  0  0  0
 25 26  2  0  0  0  0
 26 27  1  0  0  0  0
 27 28  2  0  0  0  0
 28 29  1  0  0  0  0
 29 30  2  0  0  0  0
 30 25  1  0  0  0  0
 27 31  1  0  0  0  0
 31 32  1  0  0  0  0
 28 33  1  0  0  0  0
 33 34  1  0  0  0  0
M  END
>  <Mol_ID> (73)
136

>  <Formula> (73)
C25H31N5O4

>  <MolWeight> (73)
465.54474

>  <Cat> (73)
S1226

>  <Name> (73)
Ku-0063794

>  <Synonyms> (73)
N/A

>  <Target> (73)
mTOR 

>  <Form> (73)
Free Base

>  <CAS> (73)
938440-64-3

>  <URL> (73)
http://www.selleckchem.com/products/KU-0063794.html

$$$$
MP-470.cdx
csChFnd80/05071909292D

 32 37  0  0  0  0  0  0  0  0999 V2000
    0.4326   11.2181    0.0000 C   0  0  0  0  0  0  0  0  0  0  0  0
    0.0000    9.8866    0.0000 C   0  0  0  0  0  0  0  0  0  0  0  0
    0.9368    8.8462    0.0000 C   0  0  0  0  0  0  0  0  0  0  0  0
    2.3062    9.1373    0.0000 C   0  0  0  0  0  0  0  0  0  0  0  0
    2.7388   10.4688    0.0000 C   0  0  0  0  0  0  0  0  0  0  0  0
    1.8020   11.5092    0.0000 C   0  0  0  0  0  0  0  0  0  0  0  0
    3.4388    8.3144    0.0000 O   0  0  0  0  0  0  0  0  0  0  0  0
    4.5714    9.1373    0.0000 C   0  0  0  0  0  0  0  0  0  0  0  0
    4.1388   10.4688    0.0000 C   0  0  0  0  0  0  0  0  0  0  0  0
    5.9408    8.8462    0.0000 C   0  0  0  0  0  0  0  0  0  0  0  0
    6.8776    9.8866    0.0000 N   0  0  0  0  0  0  0  0  0  0  0  0
    6.4450   11.2181    0.0000 C   0  0  0  0  0  0  0  0  0  0  0  0
    5.0756   11.5092    0.0000 N   0  0  0  0  0  0  0  0  0  0  0  0
    6.3720    7.5194    0.0000 N   0  0  0  0  0  0  0  0  0  0  0  0
    5.4352    6.4790    0.0000 C   0  0  0  0  0  0  0  0  0  0  0  0
    5.8678    5.1475    0.0000 C   0  0  0  0  0  0  0  0  0  0  0  0
    7.2372    4.8564    0.0000 N   0  0  0  0  0  0  0  0  0  0  0  0
    8.1740    5.8968    0.0000 C   0  0  0  0  0  0  0  0  0  0  0  0
    7.7414    7.2283    0.0000 C   0  0  0  0  0  0  0  0  0  0  0  0
    7.6683    3.5295    0.0000 C   0  0  0  0  0  0  0  0  0  0  0  0
    6.7348    2.4928    0.0000 S   0  0  0  0  0  0  0  0  0  0  0  0
    9.0330    3.2395    0.0000 N   0  0  0  0  0  0  0  0  0  0  0  0
    9.4641    1.9126    0.0000 C   0  0  0  0  0  0  0  0  0  0  0  0
   10.8288    1.6226    0.0000 C   0  0  0  0  0  0  0  0  0  0  0  0
   11.2614    0.2911    0.0000 C   0  0  0  0  0  0  0  0  0  0  0  0
   12.6308    0.0000    0.0000 C   0  0  0  0  0  0  0  0  0  0  0  0
   13.5676    1.0404    0.0000 C   0  0  0  0  0  0  0  0  0  0  0  0
   13.1350    2.3719    0.0000 C   0  0  0  0  0  0  0  0  0  0  0  0
   11.7655    2.6630    0.0000 C   0  0  0  0  0  0  0  0  0  0  0  0
   14.9676    1.0404    0.0000 O   0  0  0  0  0  0  0  0  0  0  0  0
   15.4002    2.3719    0.0000 C   0  0  0  0  0  0  0  0  0  0  0  0
   14.2676    3.1948    0.0000 O   0  0  0  0  0  0  0  0  0  0  0  0
  1  2  2  0  0  0  0
  2  3  1  0  0  0  0
  3  4  2  0  0  0  0
  4  5  1  0  0  0  0
  5  6  2  0  0  0  0
  6  1  1  0  0  0  0
  4  7  1  0  0  0  0
  7  8  1  0  0  0  0
  8  9  2  0  0  0  0
  9  5  1  0  0  0  0
  8 10  1  0  0  0  0
 10 11  2  0  0  0  0
 11 12  1  0  0  0  0
 12 13  2  0  0  0  0
 13  9  1  0  0  0  0
 10 14  1  0  0  0  0
 14 15  1  0  0  0  0
 15 16  1  0  0  0  0
 16 17  1  0  0  0  0
 17 18  1  0  0  0  0
 18 19  1  0  0  0  0
 19 14  1  0  0  0  0
 17 20  1  0  0  0  0
 20 21  2  0  0  0  0
 20 22  1  0  0  0  0
 22 23  1  0  0  0  0
 23 24  1  0  0  0  0
 24 25  2  0  0  0  0
 25 26  1  0  0  0  0
 26 27  2  0  0  0  0
 27 28  1  0  0  0  0
 28 29  2  0  0  0  0
 29 24  1  0  0  0  0
 27 30  1  0  0  0  0
 30 31  1  0  0  0  0
 31 32  1  0  0  0  0
 32 28  1  0  0  0  0
M  END
>  <Mol_ID> (74)
144

>  <Formula> (74)
C23H21N5O3S

>  <MolWeight> (74)
447.50954

>  <Cat> (74)
S1244

>  <Name> (74)
Amuvatinib (MP-470)

>  <Synonyms> (74)
N/A 

>  <Target> (74)
c-Met, c-Kit, PDGFR, Flt, c-RET

>  <Form> (74)
Free Base

>  <CAS> (74)
850879-09-3

>  <URL> (74)
http://www.selleckchem.com/products/MP-470.html

$$$$
leflunomide.cdx
csChFnd80/05071909292D

 19 20  0  0  0  0  0  0  0  0999 V2000
    5.8404    3.0234    0.0000 C   0  0  0  0  0  0  0  0  0  0  0  0
    7.0529    2.3234    0.0000 C   0  0  0  0  0  0  0  0  0  0  0  0
    8.2653    3.0234    0.0000 C   0  0  0  0  0  0  0  0  0  0  0  0
    8.2653    4.4234    0.0000 C   0  0  0  0  0  0  0  0  0  0  0  0
    7.0529    5.1234    0.0000 C   0  0  0  0  0  0  0  0  0  0  0  0
    5.8404    4.4234    0.0000 C   0  0  0  0  0  0  0  0  0  0  0  0
    9.4735    5.1210    0.0000 C   0  0  0  0  0  0  0  0  0  0  0  0
   10.6818    4.4234    0.0000 F   0  0  0  0  0  0  0  0  0  0  0  0
    9.4735    6.5161    0.0000 F   0  0  0  0  0  0  0  0  0  0  0  0
   10.6818    5.8186    0.0000 F   0  0  0  0  0  0  0  0  0  0  0  0
    4.6322    2.3259    0.0000 N   0  0  0  0  0  0  0  0  0  0  0  0
    3.4240    3.0234    0.0000 C   0  0  0  0  0  0  0  0  0  0  0  0
    2.2157    2.3259    0.0000 C   0  0  0  0  0  0  0  0  0  0  0  0
    3.4240    4.4186    0.0000 O   0  0  0  0  0  0  0  0  0  0  0  0
    0.9368    2.8953    0.0000 C   0  0  0  0  0  0  0  0  0  0  0  0
    0.0000    1.8549    0.0000 N   0  0  0  0  0  0  0  0  0  0  0  0
    0.7000    0.6425    0.0000 O   0  0  0  0  0  0  0  0  0  0  0  0
    2.0694    0.9335    0.0000 C   0  0  0  0  0  0  0  0  0  0  0  0
    3.1062    0.0000    0.0000 C   0  0  0  0  0  0  0  0  0  0  0  0
  1  2  2  0  0  0  0
  2  3  1  0  0  0  0
  3  4  2  0  0  0  0
  4  5  1  0  0  0  0
  5  6  2  0  0  0  0
  6  1  1  0  0  0  0
  4  7  1  0  0  0  0
  7  8  1  0  0  0  0
  7  9  1  0  0  0  0
  7 10  1  0  0  0  0
  1 11  1  0  0  0  0
 11 12  1  0  0  0  0
 12 13  1  0  0  0  0
 12 14  2  0  0  0  0
 13 15  1  0  0  0  0
 15 16  2  0  0  0  0
 16 17  1  0  0  0  0
 17 18  1  0  0  0  0
 18 13  2  0  0  0  0
 18 19  1  0  0  0  0
M  END
>  <Mol_ID> (75)
145

>  <Formula> (75)
C12H9F3N2O2

>  <MolWeight> (75)
270.2072696

>  <Cat> (75)
S1247

>  <Name> (75)
Leflunomide

>  <Synonyms> (75)
Arava

>  <Target> (75)
Dehydrogenase

>  <Form> (75)
Free Base

>  <CAS> (75)
75706-12-6

>  <URL> (75)
http://www.selleckchem.com/products/Leflunomide.html

$$$$
JNJ-7706621.cdx
csChFnd80/05071909292D

 27 29  0  0  0  0  0  0  0  0999 V2000
    2.0927    4.8115    0.0000 C   0  0  0  0  0  0  0  0  0  0  0  0
    2.7927    3.5990    0.0000 C   0  0  0  0  0  0  0  0  0  0  0  0
    4.1927    3.5990    0.0000 C   0  0  0  0  0  0  0  0  0  0  0  0
    4.8927    4.8115    0.0000 C   0  0  0  0  0  0  0  0  0  0  0  0
    4.1927    6.0239    0.0000 C   0  0  0  0  0  0  0  0  0  0  0  0
    2.7927    6.0239    0.0000 C   0  0  0  0  0  0  0  0  0  0  0  0
    0.6976    4.8115    0.0000 S   0  0  0  0  0  0  0  0  0  0  0  0
    0.0000    3.6032    0.0000 N   0  0  0  0  0  0  0  0  0  0  0  0
    0.0000    6.0197    0.0000 O   0  0  0  0  0  0  0  0  0  0  0  0
    1.3951    3.6032    0.0000 O   0  0  0  0  0  0  0  0  0  0  0  0
    6.2879    4.8115    0.0000 N   0  0  0  0  0  0  0  0  0  0  0  0
    6.9854    3.6032    0.0000 C   0  0  0  0  0  0  0  0  0  0  0  0
    6.4160    2.3243    0.0000 N   0  0  0  0  0  0  0  0  0  0  0  0
    7.4564    1.3875    0.0000 C   0  0  0  0  0  0  0  0  0  0  0  0
    8.6688    2.0875    0.0000 N   0  0  0  0  0  0  0  0  0  0  0  0
    8.3778    3.4569    0.0000 N   0  0  0  0  0  0  0  0  0  0  0  0
    7.3106    0.0000    0.0000 N   0  0  0  0  0  0  0  0  0  0  0  0
    9.9434    1.5200    0.0000 C   0  0  0  0  0  0  0  0  0  0  0  0
   11.0720    2.3401    0.0000 C   0  0  0  0  0  0  0  0  0  0  0  0
   12.3510    1.7707    0.0000 C   0  0  0  0  0  0  0  0  0  0  0  0
   13.4836    2.5936    0.0000 C   0  0  0  0  0  0  0  0  0  0  0  0
   13.3373    3.9859    0.0000 C   0  0  0  0  0  0  0  0  0  0  0  0
   12.0583    4.5553    0.0000 C   0  0  0  0  0  0  0  0  0  0  0  0
   10.9257    3.7324    0.0000 C   0  0  0  0  0  0  0  0  0  0  0  0
    9.6512    4.2999    0.0000 F   0  0  0  0  0  0  0  0  0  0  0  0
   12.4968    0.3832    0.0000 F   0  0  0  0  0  0  0  0  0  0  0  0
   10.0892    0.1325    0.0000 O   0  0  0  0  0  0  0  0  0  0  0  0
  1  2  2  0  0  0  0
  2  3  1  0  0  0  0
  3  4  2  0  0  0  0
  4  5  1  0  0  0  0
  5  6  2  0  0  0  0
  6  1  1  0  0  0  0
  1  7  1  0  0  0  0
  7  8  1  0  0  0  0
  7  9  2  0  0  0  0
  7 10  2  0  0  0  0
  4 11  1  0  0  0  0
 11 12  1  0  0  0  0
 12 13  1  0  0  0  0
 13 14  2  0  0  0  0
 14 15  1  0  0  0  0
 15 16  1  0  0  0  0
 16 12  2  0  0  0  0
 14 17  1  0  0  0  0
 15 18  1  0  0  0  0
 18 19  1  0  0  0  0
 19 20  2  0  0  0  0
 20 21  1  0  0  0  0
 21 22  2  0  0  0  0
 22 23  1  0  0  0  0
 23 24  2  0  0  0  0
 24 19  1  0  0  0  0
 24 25  1  0  0  0  0
 20 26  1  0  0  0  0
 18 27  2  0  0  0  0
M  END
>  <Mol_ID> (76)
146

>  <Formula> (76)
C15H12F2N6O3S

>  <MolWeight> (76)
394.3559864

>  <Cat> (76)
S1249

>  <Name> (76)
JNJ-7706621

>  <Synonyms> (76)
N/A 

>  <Target> (76)
CDK, Aurora Kinase

>  <Form> (76)
Free Base

>  <CAS> (76)
443797-96-4

>  <URL> (76)
http://www.selleckchem.com/products/JNJ-7706621.html

$$$$
PD173074.cdx
csChFnd80/05071909292D

 38 40  0  0  0  0  0  0  0  0999 V2000
    3.6331    7.6854    0.0000 N   0  0  0  0  0  0  0  0  0  0  0  0
    3.6331    6.2854    0.0000 C   0  0  0  0  0  0  0  0  0  0  0  0
    4.8455    5.5854    0.0000 N   0  0  0  0  0  0  0  0  0  0  0  0
    6.0580    6.2854    0.0000 C   0  0  0  0  0  0  0  0  0  0  0  0
    6.0580    7.6854    0.0000 C   0  0  0  0  0  0  0  0  0  0  0  0
    4.8455    8.3854    0.0000 C   0  0  0  0  0  0  0  0  0  0  0  0
    7.2704    5.5854    0.0000 N   0  0  0  0  0  0  0  0  0  0  0  0
    8.4828    6.2854    0.0000 C   0  0  0  0  0  0  0  0  0  0  0  0
    8.4828    7.6854    0.0000 C   0  0  0  0  0  0  0  0  0  0  0  0
    7.2704    8.3854    0.0000 C   0  0  0  0  0  0  0  0  0  0  0  0
    9.6911    8.3830    0.0000 C   0  0  0  0  0  0  0  0  0  0  0  0
    9.6911    5.5879    0.0000 N   0  0  0  0  0  0  0  0  0  0  0  0
    9.6911    4.1879    0.0000 C   0  0  0  0  0  0  0  0  0  0  0  0
   10.8993    3.4903    0.0000 N   0  0  0  0  0  0  0  0  0  0  0  0
    8.4828    3.4903    0.0000 O   0  0  0  0  0  0  0  0  0  0  0  0
   10.8993    2.0951    0.0000 C   0  0  0  0  0  0  0  0  0  0  0  0
    9.6911    1.3976    0.0000 C   0  0  0  0  0  0  0  0  0  0  0  0
   12.1075    1.3976    0.0000 C   0  0  0  0  0  0  0  0  0  0  0  0
   12.1075    2.7927    0.0000 C   0  0  0  0  0  0  0  0  0  0  0  0
   10.9035    7.6830    0.0000 C   0  0  0  0  0  0  0  0  0  0  0  0
   12.1159    8.3830    0.0000 C   0  0  0  0  0  0  0  0  0  0  0  0
   12.1159    9.7830    0.0000 C   0  0  0  0  0  0  0  0  0  0  0  0
   10.9035   10.4830    0.0000 C   0  0  0  0  0  0  0  0  0  0  0  0
    9.6911    9.7830    0.0000 C   0  0  0  0  0  0  0  0  0  0  0  0
   10.9035   11.8781    0.0000 O   0  0  0  0  0  0  0  0  0  0  0  0
   12.1117   12.5757    0.0000 C   0  0  0  0  0  0  0  0  0  0  0  0
   13.3242    7.6854    0.0000 O   0  0  0  0  0  0  0  0  0  0  0  0
   13.3242    6.2903    0.0000 C   0  0  0  0  0  0  0  0  0  0  0  0
    2.4249    5.5879    0.0000 N   0  0  0  0  0  0  0  0  0  0  0  0
    1.2124    6.2879    0.0000 C   0  0  0  0  0  0  0  0  0  0  0  0
    0.0000    5.5879    0.0000 C   0  0  0  0  0  0  0  0  0  0  0  0
    0.0000    4.1879    0.0000 C   0  0  0  0  0  0  0  0  0  0  0  0
    1.2124    3.4879    0.0000 C   0  0  0  0  0  0  0  0  0  0  0  0
    1.2124    2.0927    0.0000 N   0  0  0  0  0  0  0  0  0  0  0  0
    2.4207    1.3951    0.0000 C   0  0  0  0  0  0  0  0  0  0  0  0
    2.4207    0.0000    0.0000 C   0  0  0  0  0  0  0  0  0  0  0  0
    2.6124    2.0927    0.0000 C   0  0  0  0  0  0  0  0  0  0  0  0
    3.3100    3.3009    0.0000 C   0  0  0  0  0  0  0  0  0  0  0  0
  1  2  2  0  0  0  0
  2  3  1  0  0  0  0
  3  4  2  0  0  0  0
  4  5  1  0  0  0  0
  5  6  2  0  0  0  0
  6  1  1  0  0  0  0
  4  7  1  0  0  0  0
  7  8  2  0  0  0  0
  8  9  1  0  0  0  0
  9 10  2  0  0  0  0
 10  5  1  0  0  0  0
  9 11  1  0  0  0  0
  8 12  1  0  0  0  0
 12 13  1  0  0  0  0
 13 14  1  0  0  0  0
 13 15  2  0  0  0  0
 14 16  1  0  0  0  0
 16 17  1  0  0  0  0
 16 18  1  0  0  0  0
 16 19  1  0  0  0  0
 11 20  2  0  0  0  0
 20 21  1  0  0  0  0
 21 22  2  0  0  0  0
 22 23  1  0  0  0  0
 23 24  2  0  0  0  0
 24 11  1  0  0  0  0
 23 25  1  0  0  0  0
 25 26  1  0  0  0  0
 21 27  1  0  0  0  0
 27 28  1  0  0  0  0
  2 29  1  0  0  0  0
 29 30  1  0  0  0  0
 30 31  1  0  0  0  0
 31 32  1  0  0  0  0
 32 33  1  0  0  0  0
 33 34  1  0  0  0  0
 34 35  1  0  0  0  0
 35 36  1  0  0  0  0
 34 37  1  0  0  0  0
 37 38  1  0  0  0  0
M  END
>  <Mol_ID> (77)
157

>  <Formula> (77)
C28H41N7O3

>  <MolWeight> (77)
523.67024

>  <Cat> (77)
S1264

>  <Name> (77)
PD173074

>  <Synonyms> (77)
N/A

>  <Target> (77)
FGFR, VEGFR

>  <Form> (77)
Free Base

>  <CAS> (77)
219580-11-7

>  <URL> (77)
http://www.selleckchem.com/products/PD-173074.html

$$$$
WYE-354.cdx
csChFnd80/05071909292D

 36 40  0  0  0  0  0  0  0  0999 V2000
    4.8329    6.0885    0.0000 C   0  0  0  0  0  0  0  0  0  0  0  0
    4.8329    4.6885    0.0000 C   0  0  0  0  0  0  0  0  0  0  0  0
    6.0453    3.9885    0.0000 C   0  0  0  0  0  0  0  0  0  0  0  0
    7.2578    4.6885    0.0000 C   0  0  0  0  0  0  0  0  0  0  0  0
    7.2578    6.0885    0.0000 C   0  0  0  0  0  0  0  0  0  0  0  0
    6.0453    6.7885    0.0000 C   0  0  0  0  0  0  0  0  0  0  0  0
    3.6247    3.9909    0.0000 N   0  0  0  0  0  0  0  0  0  0  0  0
    2.4165    4.6885    0.0000 C   0  0  0  0  0  0  0  0  0  0  0  0
    1.2082    3.9909    0.0000 O   0  0  0  0  0  0  0  0  0  0  0  0
    2.4165    6.0837    0.0000 O   0  0  0  0  0  0  0  0  0  0  0  0
    0.0000    4.6885    0.0000 C   0  0  0  0  0  0  0  0  0  0  0  0
    8.4660    6.7861    0.0000 C   0  0  0  0  0  0  0  0  0  0  0  0
    9.6784    6.0861    0.0000 N   0  0  0  0  0  0  0  0  0  0  0  0
   10.8909    6.7861    0.0000 C   0  0  0  0  0  0  0  0  0  0  0  0
   10.8909    8.1861    0.0000 C   0  0  0  0  0  0  0  0  0  0  0  0
    9.6784    8.8861    0.0000 C   0  0  0  0  0  0  0  0  0  0  0  0
    8.4660    8.1861    0.0000 N   0  0  0  0  0  0  0  0  0  0  0  0
    9.6784   10.2812    0.0000 N   0  0  0  0  0  0  0  0  0  0  0  0
   10.8909   10.9812    0.0000 C   0  0  0  0  0  0  0  0  0  0  0  0
   10.8909   12.3812    0.0000 C   0  0  0  0  0  0  0  0  0  0  0  0
    9.6784   13.0812    0.0000 O   0  0  0  0  0  0  0  0  0  0  0  0
    8.4660   12.3812    0.0000 C   0  0  0  0  0  0  0  0  0  0  0  0
    8.4660   10.9812    0.0000 C   0  0  0  0  0  0  0  0  0  0  0  0
   12.2224    6.3535    0.0000 N   0  0  0  0  0  0  0  0  0  0  0  0
   13.0453    7.4861    0.0000 N   0  0  0  0  0  0  0  0  0  0  0  0
   12.2224    8.6187    0.0000 C   0  0  0  0  0  0  0  0  0  0  0  0
   12.6535    5.0266    0.0000 C   0  0  0  0  0  0  0  0  0  0  0  0
   11.7167    3.9862    0.0000 C   0  0  0  0  0  0  0  0  0  0  0  0
   12.1493    2.6547    0.0000 C   0  0  0  0  0  0  0  0  0  0  0  0
   13.5187    2.3636    0.0000 N   0  0  0  0  0  0  0  0  0  0  0  0
   14.4555    3.4041    0.0000 C   0  0  0  0  0  0  0  0  0  0  0  0
   14.0229    4.7355    0.0000 C   0  0  0  0  0  0  0  0  0  0  0  0
   13.9498    1.0368    0.0000 C   0  0  0  0  0  0  0  0  0  0  0  0
   13.0163    0.0000    0.0000 O   0  0  0  0  0  0  0  0  0  0  0  0
   15.3145    0.7467    0.0000 O   0  0  0  0  0  0  0  0  0  0  0  0
   16.2480    1.7835    0.0000 C   0  0  0  0  0  0  0  0  0  0  0  0
  1  2  2  0  0  0  0
  2  3  1  0  0  0  0
  3  4  2  0  0  0  0
  4  5  1  0  0  0  0
  5  6  2  0  0  0  0
  6  1  1  0  0  0  0
  2  7  1  0  0  0  0
  7  8  1  0  0  0  0
  8  9  1  0  0  0  0
  8 10  2  0  0  0  0
  9 11  1  0  0  0  0
  5 12  1  0  0  0  0
 12 13  2  0  0  0  0
 13 14  1  0  0  0  0
 14 15  2  0  0  0  0
 15 16  1  0  0  0  0
 16 17  2  0  0  0  0
 17 12  1  0  0  0  0
 16 18  1  0  0  0  0
 18 19  1  0  0  0  0
 19 20  1  0  0  0  0
 20 21  1  0  0  0  0
 21 22  1  0  0  0  0
 22 23  1  0  0  0  0
 23 18  1  0  0  0  0
 14 24  1  0  0  0  0
 24 25  1  0  0  0  0
 25 26  2  0  0  0  0
 26 15  1  0  0  0  0
 24 27  1  0  0  0  0
 27 28  1  0  0  0  0
 28 29  1  0  0  0  0
 29 30  1  0  0  0  0
 30 31  1  0  0  0  0
 31 32  1  0  0  0  0
 32 27  1  0  0  0  0
 30 33  1  0  0  0  0
 33 34  2  0  0  0  0
 33 35  1  0  0  0  0
 35 36  1  0  0  0  0
M  END
>  <Mol_ID> (78)
158

>  <Formula> (78)
C24H29N7O5

>  <MolWeight> (78)
495.53096

>  <Cat> (78)
S1266

>  <Name> (78)
WYE-354

>  <Synonyms> (78)
N/A

>  <Target> (78)
mTOR 

>  <Form> (78)
Free Base

>  <CAS> (78)
1062169-56-5

>  <URL> (78)
http://www.selleckchem.com/products/WYE-354.html

$$$$
PLX-4032.cdx
csChFnd80/05071909292D

 33 36  0  0  0  0  0  0  0  0999 V2000
    4.8413    2.1000    0.0000 C   0  0  0  0  0  0  0  0  0  0  0  0
    4.8413    0.7000    0.0000 C   0  0  0  0  0  0  0  0  0  0  0  0
    6.0538    0.0000    0.0000 N   0  0  0  0  0  0  0  0  0  0  0  0
    7.2662    0.7000    0.0000 C   0  0  0  0  0  0  0  0  0  0  0  0
    7.2662    2.1000    0.0000 C   0  0  0  0  0  0  0  0  0  0  0  0
    6.0538    2.8000    0.0000 C   0  0  0  0  0  0  0  0  0  0  0  0
    8.5977    0.2674    0.0000 N   0  0  0  0  0  0  0  0  0  0  0  0
    9.4206    1.4000    0.0000 C   0  0  0  0  0  0  0  0  0  0  0  0
    8.5977    2.5326    0.0000 C   0  0  0  0  0  0  0  0  0  0  0  0
    3.6331    2.7976    0.0000 C   0  0  0  0  0  0  0  0  0  0  0  0
    3.6331    4.1976    0.0000 C   0  0  0  0  0  0  0  0  0  0  0  0
    2.4207    4.8976    0.0000 C   0  0  0  0  0  0  0  0  0  0  0  0
    1.2082    4.1976    0.0000 C   0  0  0  0  0  0  0  0  0  0  0  0
    1.2082    2.7976    0.0000 C   0  0  0  0  0  0  0  0  0  0  0  0
    2.4207    2.0976    0.0000 C   0  0  0  0  0  0  0  0  0  0  0  0
    0.0000    4.8951    0.0000 Cl  0  0  0  0  0  0  0  0  0  0  0  0
    9.0288    3.8595    0.0000 C   0  0  0  0  0  0  0  0  0  0  0  0
    8.0953    4.8963    0.0000 O   0  0  0  0  0  0  0  0  0  0  0  0
   10.3935    4.1495    0.0000 C   0  0  0  0  0  0  0  0  0  0  0  0
   11.3302    3.1091    0.0000 C   0  0  0  0  0  0  0  0  0  0  0  0
   12.6996    3.4002    0.0000 C   0  0  0  0  0  0  0  0  0  0  0  0
   13.1323    4.7317    0.0000 C   0  0  0  0  0  0  0  0  0  0  0  0
   12.1955    5.7721    0.0000 C   0  0  0  0  0  0  0  0  0  0  0  0
   10.8261    5.4810    0.0000 C   0  0  0  0  0  0  0  0  0  0  0  0
   13.6332    2.3634    0.0000 N   0  0  0  0  0  0  0  0  0  0  0  0
   10.8991    1.7823    0.0000 F   0  0  0  0  0  0  0  0  0  0  0  0
   15.0332    2.3634    0.0000 S   0  0  0  0  0  0  0  0  0  0  0  0
   15.0332    3.7634    0.0000 O   0  0  0  0  0  0  0  0  0  0  0  0
   15.0332    0.9634    0.0000 O   0  0  0  0  0  0  0  0  0  0  0  0
   16.4332    2.3634    0.0000 C   0  0  0  0  0  0  0  0  0  0  0  0
   17.1332    1.1510    0.0000 C   0  0  0  0  0  0  0  0  0  0  0  0
   18.5332    1.1510    0.0000 C   0  0  0  0  0  0  0  0  0  0  0  0
    9.8925    6.5178    0.0000 F   0  0  0  0  0  0  0  0  0  0  0  0
  1  2  2  0  0  0  0
  2  3  1  0  0  0  0
  3  4  2  0  0  0  0
  4  5  1  0  0  0  0
  5  6  2  0  0  0  0
  6  1  1  0  0  0  0
  4  7  1  0  0  0  0
  7  8  1  0  0  0  0
  8  9  2  0  0  0  0
  9  5  1  0  0  0  0
  1 10  1  0  0  0  0
 10 11  2  0  0  0  0
 11 12  1  0  0  0  0
 12 13  2  0  0  0  0
 13 14  1  0  0  0  0
 14 15  2  0  0  0  0
 15 10  1  0  0  0  0
 13 16  1  0  0  0  0
  9 17  1  0  0  0  0
 17 18  2  0  0  0  0
 17 19  1  0  0  0  0
 19 20  2  0  0  0  0
 20 21  1  0  0  0  0
 21 22  2  0  0  0  0
 22 23  1  0  0  0  0
 23 24  2  0  0  0  0
 24 19  1  0  0  0  0
 21 25  1  0  0  0  0
 20 26  1  0  0  0  0
 25 27  1  0  0  0  0
 27 28  2  0  0  0  0
 27 29  2  0  0  0  0
 27 30  1  0  0  0  0
 30 31  1  0  0  0  0
 31 32  1  0  0  0  0
 24 33  1  0  0  0  0
M  END
>  <Mol_ID> (79)
159

>  <Formula> (79)
C23H18ClF2N3O3S

>  <MolWeight> (79)
489.9221264

>  <Cat> (79)
S1267

>  <Name> (79)
Vemurafenib (PLX4032, RG7204)

>  <Synonyms> (79)
RO5185426

>  <Target> (79)
Raf 

>  <Form> (79)
Free Base

>  <CAS> (79)
918504-65-1

>  <URL> (79)
http://www.selleckchem.com/products/PLX-4032.html

$$$$
Genistein.cdx
csChFnd80/05071909292D

 20 22  0  0  0  0  0  0  0  0999 V2000
    1.2082    0.7000    0.0000 C   0  0  0  0  0  0  0  0  0  0  0  0
    2.4207    0.0000    0.0000 C   0  0  0  0  0  0  0  0  0  0  0  0
    3.6331    0.7000    0.0000 C   0  0  0  0  0  0  0  0  0  0  0  0
    3.6331    2.1000    0.0000 C   0  0  0  0  0  0  0  0  0  0  0  0
    2.4207    2.8000    0.0000 C   0  0  0  0  0  0  0  0  0  0  0  0
    1.2082    2.1000    0.0000 C   0  0  0  0  0  0  0  0  0  0  0  0
    4.8455    0.0000    0.0000 O   0  0  0  0  0  0  0  0  0  0  0  0
    6.0580    0.7000    0.0000 C   0  0  0  0  0  0  0  0  0  0  0  0
    6.0580    2.1000    0.0000 C   0  0  0  0  0  0  0  0  0  0  0  0
    4.8455    2.8000    0.0000 C   0  0  0  0  0  0  0  0  0  0  0  0
    4.8455    4.1951    0.0000 O   0  0  0  0  0  0  0  0  0  0  0  0
    7.2662    2.7976    0.0000 C   0  0  0  0  0  0  0  0  0  0  0  0
    8.4786    2.0976    0.0000 C   0  0  0  0  0  0  0  0  0  0  0  0
    9.6911    2.7976    0.0000 C   0  0  0  0  0  0  0  0  0  0  0  0
    9.6911    4.1976    0.0000 C   0  0  0  0  0  0  0  0  0  0  0  0
    8.4786    4.8976    0.0000 C   0  0  0  0  0  0  0  0  0  0  0  0
    7.2662    4.1976    0.0000 C   0  0  0  0  0  0  0  0  0  0  0  0
   10.8993    4.8951    0.0000 O   0  0  0  0  0  0  0  0  0  0  0  0
    0.0000    0.0024    0.0000 O   0  0  0  0  0  0  0  0  0  0  0  0
    2.4207    4.1951    0.0000 O   0  0  0  0  0  0  0  0  0  0  0  0
  1  2  2  0  0  0  0
  2  3  1  0  0  0  0
  3  4  2  0  0  0  0
  4  5  1  0  0  0  0
  5  6  2  0  0  0  0
  6  1  1  0  0  0  0
  3  7  1  0  0  0  0
  7  8  1  0  0  0  0
  8  9  2  0  0  0  0
  9 10  1  0  0  0  0
 10  4  1  0  0  0  0
 10 11  2  0  0  0  0
  9 12  1  0  0  0  0
 12 13  2  0  0  0  0
 13 14  1  0  0  0  0
 14 15  2  0  0  0  0
 15 16  1  0  0  0  0
 16 17  2  0  0  0  0
 17 12  1  0  0  0  0
 15 18  1  0  0  0  0
  1 19  1  0  0  0  0
  5 20  1  0  0  0  0
M  END
>  <Mol_ID> (80)
224

>  <Formula> (80)
C15H10O5

>  <MolWeight> (80)
270.2369

>  <Cat> (80)
S1342

>  <Name> (80)
Genistein

>  <Synonyms> (80)
N/A

>  <Target> (80)
Topoisomerase
EGFR

>  <Form> (80)
Free Base

>  <CAS> (80)
446-72-0

>  <URL> (80)
http://www.selleckchem.com/products/Genistein.html

$$$$
TG100-115.cdx
csChFnd80/05071909292D

 26 29  0  0  0  0  0  0  0  0999 V2000
    3.6331    5.5927    0.0000 C   0  0  0  0  0  0  0  0  0  0  0  0
    3.6331    4.1927    0.0000 C   0  0  0  0  0  0  0  0  0  0  0  0
    4.8455    3.4927    0.0000 N   0  0  0  0  0  0  0  0  0  0  0  0
    6.0580    4.1927    0.0000 C   0  0  0  0  0  0  0  0  0  0  0  0
    6.0580    5.5927    0.0000 C   0  0  0  0  0  0  0  0  0  0  0  0
    4.8455    6.2927    0.0000 N   0  0  0  0  0  0  0  0  0  0  0  0
    7.2704    3.4927    0.0000 N   0  0  0  0  0  0  0  0  0  0  0  0
    8.4828    4.1927    0.0000 C   0  0  0  0  0  0  0  0  0  0  0  0
    8.4828    5.5927    0.0000 N   0  0  0  0  0  0  0  0  0  0  0  0
    7.2704    6.2927    0.0000 C   0  0  0  0  0  0  0  0  0  0  0  0
    9.6911    3.4951    0.0000 N   0  0  0  0  0  0  0  0  0  0  0  0
    7.2704    7.6879    0.0000 N   0  0  0  0  0  0  0  0  0  0  0  0
    2.4249    6.2903    0.0000 C   0  0  0  0  0  0  0  0  0  0  0  0
    2.4249    3.4951    0.0000 C   0  0  0  0  0  0  0  0  0  0  0  0
    2.4249    7.6903    0.0000 C   0  0  0  0  0  0  0  0  0  0  0  0
    1.2124    8.3903    0.0000 C   0  0  0  0  0  0  0  0  0  0  0  0
    0.0000    7.6903    0.0000 C   0  0  0  0  0  0  0  0  0  0  0  0
    0.0000    6.2903    0.0000 C   0  0  0  0  0  0  0  0  0  0  0  0
    1.2124    5.5903    0.0000 C   0  0  0  0  0  0  0  0  0  0  0  0
    1.2124    4.1951    0.0000 C   0  0  0  0  0  0  0  0  0  0  0  0
    0.0000    3.4951    0.0000 C   0  0  0  0  0  0  0  0  0  0  0  0
    0.0000    2.0951    0.0000 C   0  0  0  0  0  0  0  0  0  0  0  0
    1.2124    1.3951    0.0000 C   0  0  0  0  0  0  0  0  0  0  0  0
    2.4249    2.0951    0.0000 C   0  0  0  0  0  0  0  0  0  0  0  0
    1.2124    9.7854    0.0000 O   0  0  0  0  0  0  0  0  0  0  0  0
    1.2124    0.0000    0.0000 O   0  0  0  0  0  0  0  0  0  0  0  0
  1  2  2  0  0  0  0
  2  3  1  0  0  0  0
  3  4  2  0  0  0  0
  4  5  1  0  0  0  0
  5  6  2  0  0  0  0
  6  1  1  0  0  0  0
  4  7  1  0  0  0  0
  7  8  2  0  0  0  0
  8  9  1  0  0  0  0
  9 10  2  0  0  0  0
 10  5  1  0  0  0  0
  8 11  1  0  0  0  0
 10 12  1  0  0  0  0
  1 13  1  0  0  0  0
  2 14  1  0  0  0  0
 13 15  2  0  0  0  0
 15 16  1  0  0  0  0
 16 17  2  0  0  0  0
 17 18  1  0  0  0  0
 18 19  2  0  0  0  0
 19 13  1  0  0  0  0
 14 20  2  0  0  0  0
 20 21  1  0  0  0  0
 21 22  2  0  0  0  0
 22 23  1  0  0  0  0
 23 24  2  0  0  0  0
 24 14  1  0  0  0  0
 16 25  1  0  0  0  0
 23 26  1  0  0  0  0
M  END
>  <Mol_ID> (81)
227

>  <Formula> (81)
C18H14N6O2

>  <MolWeight> (81)
346.34276

>  <Cat> (81)
S1352

>  <Name> (81)
TG100-115

>  <Synonyms> (81)
N/A

>  <Target> (81)
PI3K

>  <Form> (81)
Free Base

>  <CAS> (81)
677297-51-7

>  <URL> (81)
http://www.selleckchem.com/products/TG100-115.html

$$$$
mgcd265.cdx
csChFnd80/05071909292D

 36 40  0  0  0  0  0  0  0  0999 V2000
   18.9275    6.2927    0.0000 C   0  0  0  0  0  0  0  0  0  0  0  0
   18.9275    4.8927    0.0000 C   0  0  0  0  0  0  0  0  0  0  0  0
   20.1399    4.1927    0.0000 C   0  0  0  0  0  0  0  0  0  0  0  0
   21.3524    4.8927    0.0000 C   0  0  0  0  0  0  0  0  0  0  0  0
   21.3524    6.2927    0.0000 C   0  0  0  0  0  0  0  0  0  0  0  0
   20.1399    6.9927    0.0000 C   0  0  0  0  0  0  0  0  0  0  0  0
   17.7193    6.9903    0.0000 C   0  0  0  0  0  0  0  0  0  0  0  0
   16.5110    6.2927    0.0000 C   0  0  0  0  0  0  0  0  0  0  0  0
   15.3028    6.9903    0.0000 N   0  0  0  0  0  0  0  0  0  0  0  0
   16.5110    4.8976    0.0000 O   0  0  0  0  0  0  0  0  0  0  0  0
   14.0946    6.2927    0.0000 C   0  0  0  0  0  0  0  0  0  0  0  0
   12.8863    6.9903    0.0000 N   0  0  0  0  0  0  0  0  0  0  0  0
   14.0946    4.8976    0.0000 S   0  0  0  0  0  0  0  0  0  0  0  0
   11.6781    6.2927    0.0000 C   0  0  0  0  0  0  0  0  0  0  0  0
   10.4657    6.9927    0.0000 C   0  0  0  0  0  0  0  0  0  0  0  0
    9.2533    6.2927    0.0000 C   0  0  0  0  0  0  0  0  0  0  0  0
    9.2533    4.8927    0.0000 C   0  0  0  0  0  0  0  0  0  0  0  0
   10.4657    4.1927    0.0000 C   0  0  0  0  0  0  0  0  0  0  0  0
   11.6781    4.8927    0.0000 C   0  0  0  0  0  0  0  0  0  0  0  0
   10.4657    2.7976    0.0000 F   0  0  0  0  0  0  0  0  0  0  0  0
    8.0450    4.1951    0.0000 O   0  0  0  0  0  0  0  0  0  0  0  0
    8.0450    2.8000    0.0000 C   0  0  0  0  0  0  0  0  0  0  0  0
    6.8326    2.1000    0.0000 C   0  0  0  0  0  0  0  0  0  0  0  0
    6.8326    0.7000    0.0000 C   0  0  0  0  0  0  0  0  0  0  0  0
    8.0450    0.0000    0.0000 N   0  0  0  0  0  0  0  0  0  0  0  0
    9.2575    0.7000    0.0000 C   0  0  0  0  0  0  0  0  0  0  0  0
    9.2575    2.1000    0.0000 C   0  0  0  0  0  0  0  0  0  0  0  0
    5.5011    2.5326    0.0000 S   0  0  0  0  0  0  0  0  0  0  0  0
    4.6782    1.4000    0.0000 C   0  0  0  0  0  0  0  0  0  0  0  0
    5.5011    0.2674    0.0000 C   0  0  0  0  0  0  0  0  0  0  0  0
    1.1287    0.7000    0.0000 C   0  0  0  0  0  0  0  0  0  0  0  0
    2.4602    0.2674    0.0000 N   0  0  0  0  0  0  0  0  0  0  0  0
    3.2831    1.4000    0.0000 C   0  0  0  0  0  0  0  0  0  0  0  0
    2.4602    2.5326    0.0000 C   0  0  0  0  0  0  0  0  0  0  0  0
    1.1287    2.1000    0.0000 N   0  0  0  0  0  0  0  0  0  0  0  0
    0.0000    2.9200    0.0000 C   0  0  0  0  0  0  0  0  0  0  0  0
  1  2  2  0  0  0  0
  2  3  1  0  0  0  0
  3  4  2  0  0  0  0
  4  5  1  0  0  0  0
  5  6  2  0  0  0  0
  6  1  1  0  0  0  0
  1  7  1  0  0  0  0
  7  8  1  0  0  0  0
  8  9  1  0  0  0  0
  8 10  2  0  0  0  0
  9 11  1  0  0  0  0
 11 12  1  0  0  0  0
 11 13  2  0  0  0  0
 12 14  1  0  0  0  0
 14 15  2  0  0  0  0
 15 16  1  0  0  0  0
 16 17  2  0  0  0  0
 17 18  1  0  0  0  0
 18 19  2  0  0  0  0
 19 14  1  0  0  0  0
 18 20  1  0  0  0  0
 17 21  1  0  0  0  0
 21 22  1  0  0  0  0
 22 23  2  0  0  0  0
 23 24  1  0  0  0  0
 24 25  2  0  0  0  0
 25 26  1  0  0  0  0
 26 27  2  0  0  0  0
 27 22  1  0  0  0  0
 23 28  1  0  0  0  0
 28 29  1  0  0  0  0
 29 30  2  0  0  0  0
 30 24  1  0  0  0  0
 31 32  2  0  0  0  0
 32 33  1  0  0  0  0
 33 34  2  0  0  0  0
 34 35  1  0  0  0  0
 31 35  1  0  0  0  0
 35 36  1  0  0  0  0
 33 29  1  0  0  0  0
M  END
>  <Mol_ID> (82)
231

>  <Formula> (82)
C26H20FN5O2S2

>  <MolWeight> (82)
517.5977032

>  <Cat> (82)
S1361

>  <Name> (82)
MGCD-265

>  <Synonyms> (82)
N/A

>  <Target> (82)
c-Met, VEGFR, Tie-2 

>  <Form> (82)
Free Base

>  <CAS> (82)
875337-44-3

>  <URL> (82)
http://www.selleckchem.com/products/MGCD-265.html

$$$$
ON-01910.cdx
csChFnd80/05071909292D

 32 32  0  0  0  0  0  0  0  0999 V2000
    6.0664    8.4073    0.0000 C   0  0  0  0  0  0  0  0  0  0  0  0
    6.0664    7.0024    0.0000 C   0  0  0  0  0  0  0  0  0  0  0  0
    7.2831    6.3000    0.0000 C   0  0  0  0  0  0  0  0  0  0  0  0
    8.4997    7.0024    0.0000 C   0  0  0  0  0  0  0  0  0  0  0  0
    8.4997    8.4073    0.0000 C   0  0  0  0  0  0  0  0  0  0  0  0
    7.2831    9.1097    0.0000 C   0  0  0  0  0  0  0  0  0  0  0  0
    7.2831   10.5097    0.0000 O   0  0  0  0  0  0  0  0  0  0  0  0
    9.7121    6.3024    0.0000 O   0  0  0  0  0  0  0  0  0  0  0  0
    4.8540    6.3024    0.0000 O   0  0  0  0  0  0  0  0  0  0  0  0
    6.0706   11.2097    0.0000 C   0  0  0  0  0  0  0  0  0  0  0  0
   10.9246    7.0024    0.0000 C   0  0  0  0  0  0  0  0  0  0  0  0
    3.6415    7.0024    0.0000 C   0  0  0  0  0  0  0  0  0  0  0  0
    4.8540    9.1073    0.0000 C   0  0  0  0  0  0  0  0  0  0  0  0
    3.6415    8.4073    0.0000 C   0  0  0  0  0  0  0  0  0  0  0  0
    2.4291    9.1073    0.0000 S   0  0  0  0  0  0  0  0  0  0  0  0
    1.2167    8.4073    0.0000 C   0  0  0  0  0  0  0  0  0  0  0  0
    1.4357   10.1007    0.0000 O   0  0  0  0  0  0  0  0  0  0  0  0
    3.4225   10.1007    0.0000 O   0  0  0  0  0  0  0  0  0  0  0  0
    1.2167    7.0073    0.0000 C   0  0  0  0  0  0  0  0  0  0  0  0
    0.0000    6.3049    0.0000 C   0  0  0  0  0  0  0  0  0  0  0  0
    0.0000    4.9000    0.0000 C   0  0  0  0  0  0  0  0  0  0  0  0
    1.2167    4.1976    0.0000 C   0  0  0  0  0  0  0  0  0  0  0  0
    2.4333    4.9000    0.0000 C   0  0  0  0  0  0  0  0  0  0  0  0
    2.4333    6.3049    0.0000 C   0  0  0  0  0  0  0  0  0  0  0  0
    1.2167    2.7976    0.0000 O   0  0  0  0  0  0  0  0  0  0  0  0
    0.0042    2.0976    0.0000 C   0  0  0  0  0  0  0  0  0  0  0  0
    3.6458    4.2000    0.0000 N   0  0  0  0  0  0  0  0  0  0  0  0
    3.6458    2.8000    0.0000 C   0  0  0  0  0  0  0  0  0  0  0  0
    4.8582    2.1000    0.0000 C   0  0  0  0  0  0  0  0  0  0  0  0
    4.8582    0.7000    0.0000 O   0  5  0  0  0  0  0  0  0  0  0  0
    6.0706    0.0000    0.0000 Na  0  3  0  0  0  0  0  0  0  0  0  0
    6.0706    2.8000    0.0000 O   0  0  0  0  0  0  0  0  0  0  0  0
  1  2  2  0  0  0  0
  2  3  1  0  0  0  0
  3  4  2  0  0  0  0
  4  5  1  0  0  0  0
  5  6  2  0  0  0  0
  6  1  1  0  0  0  0
  6  7  1  0  0  0  0
  4  8  1  0  0  0  0
  2  9  1  0  0  0  0
  7 10  1  0  0  0  0
  8 11  1  0  0  0  0
  9 12  1  0  0  0  0
  1 13  1  0  0  0  0
 13 14  2  0  0  0  0
 14 15  1  0  0  0  0
 15 16  1  0  0  0  0
 15 17  2  0  0  0  0
 15 18  2  0  0  0  0
 16 19  1  0  0  0  0
 19 20  2  0  0  0  0
 20 21  1  0  0  0  0
 21 22  2  0  0  0  0
 22 23  1  0  0  0  0
 23 24  2  0  0  0  0
 24 19  1  0  0  0  0
 22 25  1  0  0  0  0
 25 26  1  0  0  0  0
 23 27  1  0  0  0  0
 27 28  1  0  0  0  0
 28 29  1  0  0  0  0
 29 30  1  0  0  0  0
 29 32  2  0  0  0  0
M  END
>  <Mol_ID> (83)
232

>  <Formula> (83)
C21H24NNaO8S

>  <MolWeight> (83)
473.47193

>  <Cat> (83)
S1362

>  <Name> (83)
Rigosertib (ON-01910)

>  <Synonyms> (83)
ON-01910

>  <Target> (83)
PLK

>  <Form> (83)
Sodium Salt

>  <CAS> (83)
1225497-78-8

>  <URL> (83)
http://www.selleckchem.com/products/ON-01910.html

$$$$
KI8751.cdx
csChFnd80/05071909292D

 34 37  0  0  0  0  0  0  0  0999 V2000
    0.0000    2.1000    0.0000 C   0  0  0  0  0  0  0  0  0  0  0  0
    0.0000    0.7000    0.0000 C   0  0  0  0  0  0  0  0  0  0  0  0
    1.2124    0.0000    0.0000 N   0  0  0  0  0  0  0  0  0  0  0  0
    2.4249    0.7000    0.0000 C   0  0  0  0  0  0  0  0  0  0  0  0
    2.4249    2.1000    0.0000 C   0  0  0  0  0  0  0  0  0  0  0  0
    1.2124    2.8000    0.0000 C   0  0  0  0  0  0  0  0  0  0  0  0
    3.6373    0.0000    0.0000 C   0  0  0  0  0  0  0  0  0  0  0  0
    4.8497    0.7000    0.0000 C   0  0  0  0  0  0  0  0  0  0  0  0
    4.8497    2.1000    0.0000 C   0  0  0  0  0  0  0  0  0  0  0  0
    3.6373    2.8000    0.0000 C   0  0  0  0  0  0  0  0  0  0  0  0
    6.0580    0.0024    0.0000 O   0  0  0  0  0  0  0  0  0  0  0  0
    6.0580    2.7976    0.0000 O   0  0  0  0  0  0  0  0  0  0  0  0
    7.2662    2.1000    0.0000 C   0  0  0  0  0  0  0  0  0  0  0  0
    7.2662    0.7000    0.0000 C   0  0  0  0  0  0  0  0  0  0  0  0
    1.2124    4.1951    0.0000 O   0  0  0  0  0  0  0  0  0  0  0  0
    2.4207    4.8927    0.0000 C   0  0  0  0  0  0  0  0  0  0  0  0
    3.6331    4.1927    0.0000 C   0  0  0  0  0  0  0  0  0  0  0  0
    4.8455    4.8927    0.0000 C   0  0  0  0  0  0  0  0  0  0  0  0
    4.8455    6.2927    0.0000 C   0  0  0  0  0  0  0  0  0  0  0  0
    3.6331    6.9927    0.0000 C   0  0  0  0  0  0  0  0  0  0  0  0
    2.4207    6.2927    0.0000 C   0  0  0  0  0  0  0  0  0  0  0  0
    3.6331    8.3879    0.0000 F   0  0  0  0  0  0  0  0  0  0  0  0
    6.0538    6.9903    0.0000 N   0  0  0  0  0  0  0  0  0  0  0  0
    7.2620    6.2927    0.0000 C   0  0  0  0  0  0  0  0  0  0  0  0
    8.4702    6.9903    0.0000 N   0  0  0  0  0  0  0  0  0  0  0  0
    7.2620    4.8976    0.0000 O   0  0  0  0  0  0  0  0  0  0  0  0
    9.6784    6.2927    0.0000 C   0  0  0  0  0  0  0  0  0  0  0  0
    9.6784    4.8927    0.0000 C   0  0  0  0  0  0  0  0  0  0  0  0
   10.8909    4.1927    0.0000 C   0  0  0  0  0  0  0  0  0  0  0  0
   12.1033    4.8927    0.0000 C   0  0  0  0  0  0  0  0  0  0  0  0
   12.1033    6.2927    0.0000 C   0  0  0  0  0  0  0  0  0  0  0  0
   10.8909    6.9927    0.0000 C   0  0  0  0  0  0  0  0  0  0  0  0
   10.8909    8.3879    0.0000 F   0  0  0  0  0  0  0  0  0  0  0  0
   13.3115    4.1951    0.0000 F   0  0  0  0  0  0  0  0  0  0  0  0
  1  2  2  0  0  0  0
  2  3  1  0  0  0  0
  3  4  2  0  0  0  0
  4  5  1  0  0  0  0
  5  6  2  0  0  0  0
  6  1  1  0  0  0  0
  4  7  1  0  0  0  0
  7  8  2  0  0  0  0
  8  9  1  0  0  0  0
  9 10  2  0  0  0  0
 10  5  1  0  0  0  0
  8 11  1  0  0  0  0
  9 12  1  0  0  0  0
 12 13  1  0  0  0  0
 11 14  1  0  0  0  0
  6 15  1  0  0  0  0
 15 16  1  0  0  0  0
 16 17  2  0  0  0  0
 17 18  1  0  0  0  0
 18 19  2  0  0  0  0
 19 20  1  0  0  0  0
 20 21  2  0  0  0  0
 21 16  1  0  0  0  0
 20 22  1  0  0  0  0
 19 23  1  0  0  0  0
 23 24  1  0  0  0  0
 24 25  1  0  0  0  0
 24 26  2  0  0  0  0
 25 27  1  0  0  0  0
 27 28  2  0  0  0  0
 28 29  1  0  0  0  0
 29 30  2  0  0  0  0
 30 31  1  0  0  0  0
 31 32  2  0  0  0  0
 32 27  1  0  0  0  0
 32 33  1  0  0  0  0
 30 34  1  0  0  0  0
M  END
>  <Mol_ID> (84)
233

>  <Formula> (84)
C24H18F3N3O4

>  <MolWeight> (84)
469.4126296

>  <Cat> (84)
S1363

>  <Name> (84)
Ki8751

>  <Synonyms> (84)
N/A

>  <Target> (84)
VEGFR, c-Kit, PDGFR

>  <Form> (84)
Free Base

>  <CAS> (84)
228559-41-9

>  <URL> (84)
http://www.selleckchem.com/products/Ki8751.html

$$$$
CHIR-99021 (CT99021) hcl.cdx
csChFnd80/05071909292D

 33 35  0  0  0  0  0  0  0  0999 V2000
   10.8798    4.9415    0.0000 C   0  0  0  0  0  0  0  0  0  0  0  0
   10.8798    3.5415    0.0000 N   0  0  0  0  0  0  0  0  0  0  0  0
   12.0922    2.8415    0.0000 C   0  0  0  0  0  0  0  0  0  0  0  0
   13.3047    3.5415    0.0000 C   0  0  0  0  0  0  0  0  0  0  0  0
   13.3047    4.9415    0.0000 C   0  0  0  0  0  0  0  0  0  0  0  0
   12.0922    5.6415    0.0000 N   0  0  0  0  0  0  0  0  0  0  0  0
   14.5129    5.6391    0.0000 C   0  0  0  0  0  0  0  0  0  0  0  0
   14.5129    2.8440    0.0000 C   0  0  0  0  0  0  0  0  0  0  0  0
    9.6716    5.6391    0.0000 N   0  0  0  0  0  0  0  0  0  0  0  0
    8.4633    4.9415    0.0000 C   0  0  0  0  0  0  0  0  0  0  0  0
    7.2551    5.6391    0.0000 C   0  0  0  0  0  0  0  0  0  0  0  0
    6.0469    4.9415    0.0000 N   0  0  0  0  0  0  0  0  0  0  0  0
    4.8387    5.6391    0.0000 C   0  0  0  0  0  0  0  0  0  0  0  0
    4.8387    7.0391    0.0000 N   0  0  0  0  0  0  0  0  0  0  0  0
    3.6262    7.7391    0.0000 C   0  0  0  0  0  0  0  0  0  0  0  0
    2.4138    7.0391    0.0000 C   0  0  0  0  0  0  0  0  0  0  0  0
    2.4138    5.6391    0.0000 C   0  0  0  0  0  0  0  0  0  0  0  0
    3.6262    4.9391    0.0000 C   0  0  0  0  0  0  0  0  0  0  0  0
    1.2056    7.7367    0.0000 C   0  0  0  0  0  0  0  0  0  0  0  0
    0.0000    8.4318    0.0000 N   0  0  0  0  0  0  0  0  0  0  0  0
   14.6592    1.4516    0.0000 N   0  0  0  0  0  0  0  0  0  0  0  0
   16.0286    1.1606    0.0000 C   0  0  0  0  0  0  0  0  0  0  0  0
   16.7286    2.3730    0.0000 C   0  0  0  0  0  0  0  0  0  0  0  0
   15.7919    3.4134    0.0000 N   0  0  0  0  0  0  0  0  0  0  0  0
   15.7253    4.9391    0.0000 C   0  0  0  0  0  0  0  0  0  0  0  0
   16.9378    5.6391    0.0000 C   0  0  0  0  0  0  0  0  0  0  0  0
   16.9378    7.0391    0.0000 C   0  0  0  0  0  0  0  0  0  0  0  0
   15.7253    7.7391    0.0000 C   0  0  0  0  0  0  0  0  0  0  0  0
   14.5129    7.0391    0.0000 C   0  0  0  0  0  0  0  0  0  0  0  0
   18.1161    2.5188    0.0000 C   0  0  0  0  0  0  0  0  0  0  0  0
   18.1460    7.7367    0.0000 Cl  0  0  0  0  0  0  0  0  0  0  0  0
   13.3047    7.7367    0.0000 Cl  0  0  0  0  0  0  0  0  0  0  0  0
    8.3633    0.0000    0.0000 Cl  0  0  0  0  0  0  0  0  0  0  0  0
  1  2  2  0  0  0  0
  2  3  1  0  0  0  0
  3  4  2  0  0  0  0
  4  5  1  0  0  0  0
  5  6  2  0  0  0  0
  6  1  1  0  0  0  0
  5  7  1  0  0  0  0
  4  8  1  0  0  0  0
  1  9  1  0  0  0  0
  9 10  1  0  0  0  0
 10 11  1  0  0  0  0
 11 12  1  0  0  0  0
 12 13  1  0  0  0  0
 13 14  2  0  0  0  0
 14 15  1  0  0  0  0
 15 16  2  0  0  0  0
 16 17  1  0  0  0  0
 17 18  2  0  0  0  0
 18 13  1  0  0  0  0
 16 19  1  0  0  0  0
 19 20  3  0  0  0  0
  8 21  1  0  0  0  0
 21 22  1  0  0  0  0
 22 23  2  0  0  0  0
 23 24  1  0  0  0  0
 24  8  2  0  0  0  0
  7 25  2  0  0  0  0
 25 26  1  0  0  0  0
 26 27  2  0  0  0  0
 27 28  1  0  0  0  0
 28 29  2  0  0  0  0
 29  7  1  0  0  0  0
 23 30  1  0  0  0  0
 27 31  1  0  0  0  0
 29 32  1  0  0  0  0
M  END
>  <Mol_ID> (85)
235

>  <Formula> (85)
C22H19Cl3N8

>  <MolWeight> (85)
501.79886

>  <Cat> (85)
S2924

>  <Name> (85)
CHIR-99021 (CT99021) HCl

>  <Synonyms> (85)
N/A

>  <Target> (85)
PI3K/Akt/mTOR

>  <Form> (85)
Hydrochloride

>  <CAS> (85)
252917-06-9 (free base)

>  <URL> (85)
http://www.selleckchem.com/products/chir-99021-ct99021-hcl.html

$$$$
Pelitinib.cdx
csChFnd80/05071909292D

 33 35  0  0  0  0  0  0  0  0999 V2000
    8.4576    7.6879    0.0000 C   0  0  0  0  0  0  0  0  0  0  0  0
    8.4576    6.2879    0.0000 C   0  0  0  0  0  0  0  0  0  0  0  0
    9.6700    5.5879    0.0000 C   0  0  0  0  0  0  0  0  0  0  0  0
   10.8825    6.2879    0.0000 C   0  0  0  0  0  0  0  0  0  0  0  0
   10.8825    7.6879    0.0000 C   0  0  0  0  0  0  0  0  0  0  0  0
    9.6700    8.3879    0.0000 C   0  0  0  0  0  0  0  0  0  0  0  0
   12.0949    5.5879    0.0000 C   0  0  0  0  0  0  0  0  0  0  0  0
   13.3073    6.2879    0.0000 C   0  0  0  0  0  0  0  0  0  0  0  0
   13.3073    7.6879    0.0000 C   0  0  0  0  0  0  0  0  0  0  0  0
   12.0949    8.3879    0.0000 N   0  0  0  0  0  0  0  0  0  0  0  0
   14.5156    5.5903    0.0000 C   0  0  0  0  0  0  0  0  0  0  0  0
   15.7280    4.8903    0.0000 N   0  0  0  0  0  0  0  0  0  0  0  0
    7.2494    8.3854    0.0000 O   0  0  0  0  0  0  0  0  0  0  0  0
    7.2494    9.7806    0.0000 C   0  0  0  0  0  0  0  0  0  0  0  0
    8.4576   10.4781    0.0000 C   0  0  0  0  0  0  0  0  0  0  0  0
    7.2494    5.5903    0.0000 N   0  0  0  0  0  0  0  0  0  0  0  0
    6.0411    6.2879    0.0000 C   0  0  0  0  0  0  0  0  0  0  0  0
    4.8329    5.5903    0.0000 C   0  0  0  0  0  0  0  0  0  0  0  0
    3.6247    6.2879    0.0000 C   0  0  0  0  0  0  0  0  0  0  0  0
    6.0411    7.6830    0.0000 O   0  0  0  0  0  0  0  0  0  0  0  0
    2.4165    5.5903    0.0000 C   0  0  0  0  0  0  0  0  0  0  0  0
    1.2082    6.2879    0.0000 N   0  0  0  0  0  0  0  0  0  0  0  0
    0.0000    5.5903    0.0000 C   0  0  0  0  0  0  0  0  0  0  0  0
    1.2082    7.6830    0.0000 C   0  0  0  0  0  0  0  0  0  0  0  0
   12.0949    4.1927    0.0000 N   0  0  0  0  0  0  0  0  0  0  0  0
   13.3031    3.4951    0.0000 C   0  0  0  0  0  0  0  0  0  0  0  0
   13.3031    2.0951    0.0000 C   0  0  0  0  0  0  0  0  0  0  0  0
   14.5156    1.3951    0.0000 C   0  0  0  0  0  0  0  0  0  0  0  0
   15.7280    2.0951    0.0000 C   0  0  0  0  0  0  0  0  0  0  0  0
   15.7280    3.4951    0.0000 C   0  0  0  0  0  0  0  0  0  0  0  0
   14.5156    4.1951    0.0000 C   0  0  0  0  0  0  0  0  0  0  0  0
   14.5156    0.0000    0.0000 Cl  0  0  0  0  0  0  0  0  0  0  0  0
   16.9362    1.3976    0.0000 F   0  0  0  0  0  0  0  0  0  0  0  0
  1  2  2  0  0  0  0
  2  3  1  0  0  0  0
  3  4  2  0  0  0  0
  4  5  1  0  0  0  0
  5  6  2  0  0  0  0
  6  1  1  0  0  0  0
  4  7  1  0  0  0  0
  7  8  2  0  0  0  0
  8  9  1  0  0  0  0
  9 10  2  0  0  0  0
 10  5  1  0  0  0  0
  8 11  1  0  0  0  0
  1 13  1  0  0  0  0
 13 14  1  0  0  0  0
 14 15  1  0  0  0  0
  2 16  1  0  0  0  0
 16 17  1  0  0  0  0
 17 18  1  0  0  0  0
 18 19  2  0  0  0  0
 17 20  2  0  0  0  0
 19 21  1  0  0  0  0
 21 22  1  0  0  0  0
 22 23  1  0  0  0  0
 22 24  1  0  0  0  0
  7 25  1  0  0  0  0
 25 26  1  0  0  0  0
 26 27  2  0  0  0  0
 27 28  1  0  0  0  0
 28 29  2  0  0  0  0
 29 30  1  0  0  0  0
 30 31  2  0  0  0  0
 31 26  1  0  0  0  0
 28 32  1  0  0  0  0
 29 33  1  0  0  0  0
 11 12  3  0  0  0  0
M  END
>  <Mol_ID> (86)
249

>  <Formula> (86)
C24H23ClFN5O2

>  <MolWeight> (86)
467.9231232

>  <Cat> (86)
S1392

>  <Name> (86)
Pelitinib (EKB-569)

>  <Synonyms> (86)
WAY-EKB 569

>  <Target> (86)
EGFR

>  <Form> (86)
Free Base

>  <CAS> (86)
257933-82-7

>  <URL> (86)
http://www.selleckchem.com/products/Pelitinib.html

$$$$
Aurora A Inhibitor I.cdx
csChFnd80/05071909292D

 42 46  0  0  0  0  0  0  0  0999 V2000
   10.8867    3.4951    0.0000 N   0  0  0  0  0  0  0  0  0  0  0  0
   10.8867    2.0951    0.0000 C   0  0  0  0  0  0  0  0  0  0  0  0
   12.0991    1.3951    0.0000 C   0  0  0  0  0  0  0  0  0  0  0  0
   13.3115    2.0951    0.0000 C   0  0  0  0  0  0  0  0  0  0  0  0
   13.3115    3.4951    0.0000 N   0  0  0  0  0  0  0  0  0  0  0  0
   12.0991    4.1951    0.0000 C   0  0  0  0  0  0  0  0  0  0  0  0
   14.5198    1.3976    0.0000 N   0  0  0  0  0  0  0  0  0  0  0  0
   15.7280    2.0951    0.0000 C   0  0  0  0  0  0  0  0  0  0  0  0
   12.0991    0.0000    0.0000 F   0  0  0  0  0  0  0  0  0  0  0  0
   16.9404    1.3951    0.0000 C   0  0  0  0  0  0  0  0  0  0  0  0
   18.1529    2.0951    0.0000 C   0  0  0  0  0  0  0  0  0  0  0  0
   18.1529    3.4951    0.0000 C   0  0  0  0  0  0  0  0  0  0  0  0
   16.9404    4.1951    0.0000 C   0  0  0  0  0  0  0  0  0  0  0  0
   15.7280    3.4951    0.0000 C   0  0  0  0  0  0  0  0  0  0  0  0
   19.3611    4.1927    0.0000 C   0  0  0  0  0  0  0  0  0  0  0  0
   20.5693    3.4951    0.0000 N   0  0  0  0  0  0  0  0  0  0  0  0
   21.7775    4.1927    0.0000 C   0  0  0  0  0  0  0  0  0  0  0  0
   19.3611    5.5879    0.0000 O   0  0  0  0  0  0  0  0  0  0  0  0
   22.9900    3.4927    0.0000 C   0  0  0  0  0  0  0  0  0  0  0  0
   24.2024    4.1927    0.0000 C   0  0  0  0  0  0  0  0  0  0  0  0
   24.2024    5.5927    0.0000 C   0  0  0  0  0  0  0  0  0  0  0  0
   22.9900    6.2927    0.0000 C   0  0  0  0  0  0  0  0  0  0  0  0
   21.7775    5.5927    0.0000 C   0  0  0  0  0  0  0  0  0  0  0  0
   20.5693    6.2903    0.0000 Cl  0  0  0  0  0  0  0  0  0  0  0  0
   12.0991    5.5903    0.0000 N   0  0  0  0  0  0  0  0  0  0  0  0
   10.8909    6.2879    0.0000 C   0  0  0  0  0  0  0  0  0  0  0  0
   10.8909    7.6879    0.0000 C   0  0  0  0  0  0  0  0  0  0  0  0
    9.6784    8.3879    0.0000 C   0  0  0  0  0  0  0  0  0  0  0  0
    8.4660    7.6879    0.0000 C   0  0  0  0  0  0  0  0  0  0  0  0
    8.4660    6.2879    0.0000 C   0  0  0  0  0  0  0  0  0  0  0  0
    9.6784    5.5879    0.0000 C   0  0  0  0  0  0  0  0  0  0  0  0
    7.2578    8.3854    0.0000 C   0  0  0  0  0  0  0  0  0  0  0  0
    6.0496    7.6879    0.0000 C   0  0  0  0  0  0  0  0  0  0  0  0
    4.8413    8.3854    0.0000 N   0  0  0  0  0  0  0  0  0  0  0  0
    6.0496    6.2927    0.0000 O   0  0  0  0  0  0  0  0  0  0  0  0
    4.8413    9.7854    0.0000 C   0  0  0  0  0  0  0  0  0  0  0  0
    3.6289   10.4854    0.0000 C   0  0  0  0  0  0  0  0  0  0  0  0
    2.4165    9.7854    0.0000 N   0  0  0  0  0  0  0  0  0  0  0  0
    2.4165    8.3854    0.0000 C   0  0  0  0  0  0  0  0  0  0  0  0
    3.6289    7.6854    0.0000 C   0  0  0  0  0  0  0  0  0  0  0  0
    1.2082   10.4830    0.0000 C   0  0  0  0  0  0  0  0  0  0  0  0
    0.0000    9.7854    0.0000 C   0  0  0  0  0  0  0  0  0  0  0  0
  1  2  2  0  0  0  0
  2  3  1  0  0  0  0
  3  4  2  0  0  0  0
  4  5  1  0  0  0  0
  5  6  2  0  0  0  0
  6  1  1  0  0  0  0
  4  7  1  0  0  0  0
  7  8  1  0  0  0  0
  3  9  1  0  0  0  0
  8 10  2  0  0  0  0
 10 11  1  0  0  0  0
 11 12  2  0  0  0  0
 12 13  1  0  0  0  0
 13 14  2  0  0  0  0
 14  8  1  0  0  0  0
 12 15  1  0  0  0  0
 15 16  1  0  0  0  0
 16 17  1  0  0  0  0
 15 18  2  0  0  0  0
 17 19  2  0  0  0  0
 19 20  1  0  0  0  0
 20 21  2  0  0  0  0
 21 22  1  0  0  0  0
 22 23  2  0  0  0  0
 23 17  1  0  0  0  0
 23 24  1  0  0  0  0
  6 25  1  0  0  0  0
 25 26  1  0  0  0  0
 26 27  2  0  0  0  0
 27 28  1  0  0  0  0
 28 29  2  0  0  0  0
 29 30  1  0  0  0  0
 30 31  2  0  0  0  0
 31 26  1  0  0  0  0
 29 32  1  0  0  0  0
 32 33  1  0  0  0  0
 33 34  1  0  0  0  0
 33 35  2  0  0  0  0
 34 36  1  0  0  0  0
 36 37  1  0  0  0  0
 37 38  1  0  0  0  0
 38 39  1  0  0  0  0
 39 40  1  0  0  0  0
 40 34  1  0  0  0  0
 38 41  1  0  0  0  0
 41 42  1  0  0  0  0
M  END
>  <Mol_ID> (87)
279

>  <Formula> (87)
C31H31ClFN7O2

>  <MolWeight> (87)
588.0749432

>  <Cat> (87)
S1451

>  <Name> (87)
Aurora A Inhibitor I

>  <Synonyms> (87)
N/A

>  <Target> (87)
Aurora Kinase

>  <Form> (87)
Free Base

>  <CAS> (87)
1158838-45-9

>  <URL> (87)
http://www.selleckchem.com/products/Aurora-A-Inhibitor-I.html

$$$$
PHA-6806320.cdx
csChFnd80/05071909292D

 37 41  0  0  0  0  0  0  0  0999 V2000
    5.5914   10.5432    0.0000 C   0  0  0  0  0  0  0  0  0  0  0  0
    6.2892    9.3345    0.0000 C   0  0  0  0  0  0  0  0  0  0  0  0
    7.6849    9.3345    0.0000 C   0  0  0  0  0  0  0  0  0  0  0  0
    8.3828   10.5432    0.0000 C   0  0  0  0  0  0  0  0  0  0  0  0
    7.6849   11.7519    0.0000 C   0  0  0  0  0  0  0  0  0  0  0  0
    6.2892   11.7519    0.0000 C   0  0  0  0  0  0  0  0  0  0  0  0
    4.1957   10.5432    0.0000 N   0  0  0  0  0  0  0  0  0  0  0  0
    3.5297   11.7753    0.0000 C   0  0  0  0  0  0  0  0  0  0  0  0
    2.1297   11.7753    0.0000 C   0  0  0  0  0  0  0  0  0  0  0  0
    1.3957   10.5432    0.0000 N   0  0  0  0  0  0  0  0  0  0  0  0
    2.1297    9.3111    0.0000 C   0  0  0  0  0  0  0  0  0  0  0  0
    3.5297    9.3111    0.0000 C   0  0  0  0  0  0  0  0  0  0  0  0
    0.0000   10.5432    0.0000 C   0  0  0  0  0  0  0  0  0  0  0  0
    9.7784   10.5432    0.0000 C   0  0  0  0  0  0  0  0  0  0  0  0
   10.4763   11.7519    0.0000 O   0  0  0  0  0  0  0  0  0  0  0  0
   10.4763    9.3345    0.0000 N   0  0  0  0  0  0  0  0  0  0  0  0
   11.8720    9.3345    0.0000 C   0  0  0  0  0  0  0  0  0  0  0  0
   12.6952    8.2014    0.0000 C   0  0  0  0  0  0  0  0  0  0  0  0
   14.0272    8.6342    0.0000 C   0  0  0  0  0  0  0  0  0  0  0  0
   14.0272   10.0348    0.0000 N   0  0  0  0  0  0  0  0  0  0  0  0
   12.6952   10.4676    0.0000 N   0  0  0  0  0  0  0  0  0  0  0  0
   12.6952    6.8009    0.0000 C   0  0  0  0  0  0  0  0  0  0  0  0
   14.0272    6.3681    0.0000 N   0  0  0  0  0  0  0  0  0  0  0  0
   14.8504    7.5011    0.0000 C   0  0  0  0  0  0  0  0  0  0  0  0
   14.4585    5.0407    0.0000 C   0  0  0  0  0  0  0  0  0  0  0  0
   15.8066    4.6795    0.0000 O   0  0  0  0  0  0  0  0  0  0  0  0
   13.4716    4.0538    0.0000 N   0  0  0  0  0  0  0  0  0  0  0  0
   13.8328    2.7057    0.0000 C   0  0  0  0  0  0  0  0  0  0  0  0
   12.8425    1.7153    0.0000 C   0  0  0  0  0  0  0  0  0  0  0  0
   13.2050    0.3625    0.0000 C   0  0  0  0  0  0  0  0  0  0  0  0
   14.5578    0.0000    0.0000 C   0  0  0  0  0  0  0  0  0  0  0  0
   15.5481    0.9903    0.0000 C   0  0  0  0  0  0  0  0  0  0  0  0
   15.1857    2.3432    0.0000 C   0  0  0  0  0  0  0  0  0  0  0  0
   11.4944    2.0765    0.0000 C   0  0  0  0  0  0  0  0  0  0  0  0
   16.1726    3.3301    0.0000 C   0  0  0  0  0  0  0  0  0  0  0  0
   17.5207    2.9688    0.0000 C   0  0  0  0  0  0  0  0  0  0  0  0
   10.5075    1.0896    0.0000 C   0  0  0  0  0  0  0  0  0  0  0  0
  1  2  2  0  0  0  0
  2  3  1  0  0  0  0
  3  4  2  0  0  0  0
  4  5  1  0  0  0  0
  5  6  2  0  0  0  0
  6  1  1  0  0  0  0
  1  7  1  0  0  0  0
  7  8  1  0  0  0  0
  8  9  1  0  0  0  0
  9 10  1  0  0  0  0
 10 11  1  0  0  0  0
 11 12  1  0  0  0  0
 12  7  1  0  0  0  0
 10 13  1  0  0  0  0
  4 14  1  0  0  0  0
 14 15  2  0  0  0  0
 14 16  1  0  0  0  0
 16 17  1  0  0  0  0
 17 18  1  0  0  0  0
 18 19  2  0  0  0  0
 19 20  1  0  0  0  0
 20 21  1  0  0  0  0
 21 17  2  0  0  0  0
 18 22  1  0  0  0  0
 22 23  1  0  0  0  0
 23 24  1  0  0  0  0
 24 19  1  0  0  0  0
 23 25  1  0  0  0  0
 25 26  2  0  0  0  0
 25 27  1  0  0  0  0
 27 28  1  0  0  0  0
 28 29  2  0  0  0  0
 29 30  1  0  0  0  0
 30 31  2  0  0  0  0
 31 32  1  0  0  0  0
 32 33  2  0  0  0  0
 33 28  1  0  0  0  0
 29 34  1  0  0  0  0
 33 35  1  0  0  0  0
 35 36  1  0  0  0  0
 34 37  1  0  0  0  0
M  END
>  <Mol_ID> (88)
282

>  <Formula> (88)
C28H35N7O2

>  <MolWeight> (88)
501.6232

>  <Cat> (88)
S1454

>  <Name> (88)
PHA-680632

>  <Synonyms> (88)
N/A

>  <Target> (88)
Aurora Kinase

>  <Form> (88)
Free Base

>  <CAS> (88)
398493-79-3

>  <URL> (88)
http://www.selleckchem.com/products/PHA-680632.html

$$$$
Thiazovivin.cdx
csChFnd80/05071909292D

 22 24  0  0  0  0  0  0  0  0999 V2000
    4.9611    1.9082    0.0000 C   0  0  0  0  0  0  0  0  0  0  0  0
    4.9611    0.5082    0.0000 S   0  0  0  0  0  0  0  0  0  0  0  0
    6.2926    0.0756    0.0000 C   0  0  0  0  0  0  0  0  0  0  0  0
    7.1155    1.2082    0.0000 C   0  0  0  0  0  0  0  0  0  0  0  0
    6.2926    2.3409    0.0000 N   0  0  0  0  0  0  0  0  0  0  0  0
    3.8325    2.7283    0.0000 N   0  0  0  0  0  0  0  0  0  0  0  0
    8.5107    1.2082    0.0000 C   0  0  0  0  0  0  0  0  0  0  0  0
    9.2082    2.4165    0.0000 N   0  0  0  0  0  0  0  0  0  0  0  0
    2.5579    2.1608    0.0000 C   0  0  0  0  0  0  0  0  0  0  0  0
    1.4253    2.9837    0.0000 C   0  0  0  0  0  0  0  0  0  0  0  0
    0.1463    2.4143    0.0000 C   0  0  0  0  0  0  0  0  0  0  0  0
    0.0000    1.0220    0.0000 N   0  0  0  0  0  0  0  0  0  0  0  0
    1.1326    0.1991    0.0000 C   0  0  0  0  0  0  0  0  0  0  0  0
    2.4116    0.7685    0.0000 N   0  0  0  0  0  0  0  0  0  0  0  0
    9.2082    0.0000    0.0000 O   0  0  0  0  0  0  0  0  0  0  0  0
   10.6034    2.4165    0.0000 C   0  0  0  0  0  0  0  0  0  0  0  0
   11.3009    3.6247    0.0000 C   0  0  0  0  0  0  0  0  0  0  0  0
   12.7009    3.6247    0.0000 C   0  0  0  0  0  0  0  0  0  0  0  0
   13.4009    4.8371    0.0000 C   0  0  0  0  0  0  0  0  0  0  0  0
   12.7009    6.0496    0.0000 C   0  0  0  0  0  0  0  0  0  0  0  0
   11.3009    6.0496    0.0000 C   0  0  0  0  0  0  0  0  0  0  0  0
   10.6009    4.8371    0.0000 C   0  0  0  0  0  0  0  0  0  0  0  0
  1  2  1  0  0  0  0
  2  3  1  0  0  0  0
  3  4  2  0  0  0  0
  4  5  1  0  0  0  0
  5  1  2  0  0  0  0
  1  6  1  0  0  0  0
  4  7  1  0  0  0  0
  7  8  1  0  0  0  0
  6  9  1  0  0  0  0
  9 10  2  0  0  0  0
 10 11  1  0  0  0  0
 11 12  2  0  0  0  0
 12 13  1  0  0  0  0
 13 14  2  0  0  0  0
 14  9  1  0  0  0  0
  7 15  2  0  0  0  0
  8 16  1  0  0  0  0
 16 17  1  0  0  0  0
 17 18  2  0  0  0  0
 18 19  1  0  0  0  0
 19 20  2  0  0  0  0
 20 21  1  0  0  0  0
 21 22  2  0  0  0  0
 22 17  1  0  0  0  0
M  END
>  <Mol_ID> (89)
285

>  <Formula> (89)
C15H13N5OS

>  <MolWeight> (89)
311.36162

>  <Cat> (89)
S1459

>  <Name> (89)
Thiazovivin

>  <Synonyms> (89)
N/A

>  <Target> (89)
ROCK

>  <Form> (89)
Free Base

>  <CAS> (89)
1226056-71-8

>  <URL> (89)
http://www.selleckchem.com/products/Thiazovivin.html

$$$$
sp600125.cdx
csChFnd80/05071909292D

 17 20  0  0  0  0  0  0  0  0999 V2000
    0.0000    3.6157    0.0000 C   0  0  0  0  0  0  0  0  0  0  0  0
    0.0000    2.2157    0.0000 C   0  0  0  0  0  0  0  0  0  0  0  0
    1.2124    1.5157    0.0000 C   0  0  0  0  0  0  0  0  0  0  0  0
    2.4249    2.2157    0.0000 C   0  0  0  0  0  0  0  0  0  0  0  0
    2.4249    3.6157    0.0000 C   0  0  0  0  0  0  0  0  0  0  0  0
    1.2124    4.3157    0.0000 C   0  0  0  0  0  0  0  0  0  0  0  0
    3.6373    1.5157    0.0000 C   0  0  0  0  0  0  0  0  0  0  0  0
    4.8497    2.2157    0.0000 C   0  0  0  0  0  0  0  0  0  0  0  0
    4.8497    3.6157    0.0000 C   0  0  0  0  0  0  0  0  0  0  0  0
    3.6373    4.3157    0.0000 C   0  0  0  0  0  0  0  0  0  0  0  0
    6.0622    1.5157    0.0000 C   0  0  0  0  0  0  0  0  0  0  0  0
    7.2746    2.2157    0.0000 C   0  0  0  0  0  0  0  0  0  0  0  0
    7.2746    3.6157    0.0000 C   0  0  0  0  0  0  0  0  0  0  0  0
    6.0622    4.3157    0.0000 C   0  0  0  0  0  0  0  0  0  0  0  0
    3.6373    5.7109    0.0000 O   0  0  0  0  0  0  0  0  0  0  0  0
    3.9284    0.1463    0.0000 N   0  0  0  0  0  0  0  0  0  0  0  0
    5.3207    0.0000    0.0000 N   0  0  0  0  0  0  0  0  0  0  0  0
  1  2  1  0  0  0  0
  2  3  2  0  0  0  0
  3  4  1  0  0  0  0
  4  5  2  0  0  0  0
  5  6  1  0  0  0  0
  6  1  2  0  0  0  0
  4  7  1  0  0  0  0
  7  8  1  0  0  0  0
  8  9  2  0  0  0  0
  9 10  1  0  0  0  0
 10  5  1  0  0  0  0
  8 11  1  0  0  0  0
 11 12  2  0  0  0  0
 12 13  1  0  0  0  0
 13 14  2  0  0  0  0
 14  9  1  0  0  0  0
 10 15  2  0  0  0  0
  7 16  2  0  0  0  0
 16 17  1  0  0  0  0
 17 11  1  0  0  0  0
M  END
>  <Mol_ID> (90)
286

>  <Formula> (90)
C14H8N2O

>  <MolWeight> (90)
220.22612

>  <Cat> (90)
S1460

>  <Name> (90)
SP600125

>  <Synonyms> (90)
N/A

>  <Target> (90)
JNK

>  <Form> (90)
Free Base

>  <CAS> (90)
129-56-6

>  <URL> (90)
http://www.selleckchem.com/products/SP600125.html

$$$$
TSU-68 (SU6668).cdx
csChFnd80/05071909292D

 23 25  0  0  0  0  0  0  0  0999 V2000
    0.0000    2.1000    0.0000 C   0  0  0  0  0  0  0  0  0  0  0  0
    0.0000    0.7000    0.0000 C   0  0  0  0  0  0  0  0  0  0  0  0
    1.2124    0.0000    0.0000 C   0  0  0  0  0  0  0  0  0  0  0  0
    2.4249    0.7000    0.0000 C   0  0  0  0  0  0  0  0  0  0  0  0
    2.4249    2.1000    0.0000 C   0  0  0  0  0  0  0  0  0  0  0  0
    1.2124    2.8000    0.0000 C   0  0  0  0  0  0  0  0  0  0  0  0
    3.7563    0.2674    0.0000 N   0  0  0  0  0  0  0  0  0  0  0  0
    4.5792    1.4000    0.0000 C   0  0  0  0  0  0  0  0  0  0  0  0
    3.7563    2.5326    0.0000 C   0  0  0  0  0  0  0  0  0  0  0  0
    5.9744    1.4000    0.0000 O   0  0  0  0  0  0  0  0  0  0  0  0
    3.7563    3.9326    0.0000 C   0  0  0  0  0  0  0  0  0  0  0  0
    4.9688    4.6326    0.0000 C   0  0  0  0  0  0  0  0  0  0  0  0
    6.1812    3.9326    0.0000 N   0  0  0  0  0  0  0  0  0  0  0  0
    7.2216    4.8694    0.0000 C   0  0  0  0  0  0  0  0  0  0  0  0
    6.6522    6.1484    0.0000 C   0  0  0  0  0  0  0  0  0  0  0  0
    5.2599    6.0020    0.0000 C   0  0  0  0  0  0  0  0  0  0  0  0
    4.2699    6.9920    0.0000 C   0  0  0  0  0  0  0  0  0  0  0  0
    7.8646    6.8484    0.0000 C   0  0  0  0  0  0  0  0  0  0  0  0
    9.0771    6.1484    0.0000 C   0  0  0  0  0  0  0  0  0  0  0  0
   10.2895    6.8484    0.0000 C   0  0  0  0  0  0  0  0  0  0  0  0
   11.5019    6.1484    0.0000 O   0  0  0  0  0  0  0  0  0  0  0  0
   10.2895    8.2435    0.0000 O   0  0  0  0  0  0  0  0  0  0  0  0
    8.5739    4.5071    0.0000 C   0  0  0  0  0  0  0  0  0  0  0  0
  1  2  2  0  0  0  0
  2  3  1  0  0  0  0
  3  4  2  0  0  0  0
  4  5  1  0  0  0  0
  5  6  2  0  0  0  0
  6  1  1  0  0  0  0
  4  7  1  0  0  0  0
  7  8  1  0  0  0  0
  8  9  1  0  0  0  0
  9  5  1  0  0  0  0
  8 10  2  0  0  0  0
  9 11  2  0  0  0  0
 11 12  1  0  0  0  0
 12 13  1  0  0  0  0
 13 14  1  0  0  0  0
 14 15  2  0  0  0  0
 15 16  1  0  0  0  0
 16 12  2  0  0  0  0
 16 17  1  0  0  0  0
 15 18  1  0  0  0  0
 18 19  1  0  0  0  0
 19 20  1  0  0  0  0
 20 21  1  0  0  0  0
 20 22  2  0  0  0  0
 14 23  1  0  0  0  0
M  END
>  <Mol_ID> (91)
293

>  <Formula> (91)
C18H18N2O3

>  <MolWeight> (91)
310.34712

>  <Cat> (91)
S1470

>  <Name> (91)
Orantinib (TSU-68, SU6668)

>  <Synonyms> (91)
NSC 702827

>  <Target> (91)
VEGFR, PDGFR , FGFR 

>  <Form> (91)
Free Base

>  <CAS> (91)
252916-29-3

>  <URL> (91)
http://www.selleckchem.com/products/TSU-68(SU6668).html

$$$$
GSK429286A.cdx
csChFnd80/05071909292D

 31 34  0  0  0  0  0  0  0  0999 V2000
    1.2082    9.0951    0.0000 C   0  0  0  0  0  0  0  0  0  0  0  0
    1.2082    7.6951    0.0000 C   0  0  0  0  0  0  0  0  0  0  0  0
    2.4207    6.9951    0.0000 C   0  0  3  0  0  0  0  0  0  0  0  0
    3.6331    7.6951    0.0000 C   0  0  0  0  0  0  0  0  0  0  0  0
    3.6331    9.0951    0.0000 C   0  0  0  0  0  0  0  0  0  0  0  0
    2.4207    9.7951    0.0000 N   0  0  0  0  0  0  0  0  0  0  0  0
    4.8455    9.7951    0.0000 C   0  0  0  0  0  0  0  0  0  0  0  0
    0.0000    9.7927    0.0000 O   0  0  0  0  0  0  0  0  0  0  0  0
    2.4207    5.5951    0.0000 C   0  0  0  0  0  0  0  0  0  0  0  0
    4.8455    6.9951    0.0000 C   0  0  0  0  0  0  0  0  0  0  0  0
    6.0538    7.6927    0.0000 N   0  0  0  0  0  0  0  0  0  0  0  0
    4.8455    5.6000    0.0000 O   0  0  0  0  0  0  0  0  0  0  0  0
    1.2082    4.8951    0.0000 C   0  0  0  0  0  0  0  0  0  0  0  0
    1.2082    3.4951    0.0000 C   0  0  0  0  0  0  0  0  0  0  0  0
    2.4207    2.7951    0.0000 C   0  0  0  0  0  0  0  0  0  0  0  0
    3.6331    3.4951    0.0000 C   0  0  0  0  0  0  0  0  0  0  0  0
    3.6331    4.8951    0.0000 C   0  0  0  0  0  0  0  0  0  0  0  0
    2.4207    1.4000    0.0000 C   0  0  0  0  0  0  0  0  0  0  0  0
    1.2124    0.7024    0.0000 F   0  0  0  0  0  0  0  0  0  0  0  0
    3.6289    0.7024    0.0000 F   0  0  0  0  0  0  0  0  0  0  0  0
    2.4207    0.0000    0.0000 F   0  0  0  0  0  0  0  0  0  0  0  0
    7.2620    6.9951    0.0000 C   0  0  0  0  0  0  0  0  0  0  0  0
    7.2620    5.5951    0.0000 C   0  0  0  0  0  0  0  0  0  0  0  0
    8.4744    4.8951    0.0000 C   0  0  0  0  0  0  0  0  0  0  0  0
    9.6869    5.5951    0.0000 C   0  0  0  0  0  0  0  0  0  0  0  0
    9.6869    6.9951    0.0000 C   0  0  0  0  0  0  0  0  0  0  0  0
    8.4744    7.6951    0.0000 C   0  0  0  0  0  0  0  0  0  0  0  0
    6.0538    4.8976    0.0000 F   0  0  0  0  0  0  0  0  0  0  0  0
   11.0183    5.1625    0.0000 N   0  0  0  0  0  0  0  0  0  0  0  0
   11.8412    6.2951    0.0000 N   0  0  0  0  0  0  0  0  0  0  0  0
   11.0183    7.4278    0.0000 C   0  0  0  0  0  0  0  0  0  0  0  0
  1  2  1  0  0  0  0
  2  3  1  0  0  0  0
  3  4  1  0  0  0  0
  4  5  2  0  0  0  0
  5  6  1  0  0  0  0
  6  1  1  0  0  0  0
  5  7  1  0  0  0  0
  1  8  2  0  0  0  0
  3  9  1  0  0  0  0
  4 10  1  0  0  0  0
 10 11  1  0  0  0  0
 10 12  2  0  0  0  0
  9 13  2  0  0  0  0
 13 14  1  0  0  0  0
 14 15  2  0  0  0  0
 15 16  1  0  0  0  0
 16 17  2  0  0  0  0
 17  9  1  0  0  0  0
 15 18  1  0  0  0  0
 18 19  1  0  0  0  0
 18 20  1  0  0  0  0
 18 21  1  0  0  0  0
 11 22  1  0  0  0  0
 22 23  2  0  0  0  0
 23 24  1  0  0  0  0
 24 25  2  0  0  0  0
 25 26  1  0  0  0  0
 26 27  2  0  0  0  0
 27 22  1  0  0  0  0
 23 28  1  0  0  0  0
 25 29  1  0  0  0  0
 29 30  1  0  0  0  0
 30 31  2  0  0  0  0
 31 26  1  0  0  0  0
M  END
>  <Mol_ID> (92)
295

>  <Formula> (92)
C21H16F4N4O2

>  <MolWeight> (92)
432.3709528

>  <Cat> (92)
S1474

>  <Name> (92)
GSK429286A

>  <Synonyms> (92)
N/A

>  <Target> (92)
ROCK 

>  <Form> (92)
Free Base

>  <CAS> (92)
864082-47-3

>  <URL> (92)
http://www.selleckchem.com/products/GSK429286A.html

$$$$
AS-703026.cdx
csChFnd80/05071909292D

 23 24  0  0  0  0  0  0  0  0999 V2000
    1.2082    2.1000    0.0000 C   0  0  0  0  0  0  0  0  0  0  0  0
    1.2082    0.7000    0.0000 C   0  0  0  0  0  0  0  0  0  0  0  0
    2.4207    0.0000    0.0000 C   0  0  0  0  0  0  0  0  0  0  0  0
    3.6331    0.7000    0.0000 C   0  0  0  0  0  0  0  0  0  0  0  0
    3.6331    2.1000    0.0000 C   0  0  0  0  0  0  0  0  0  0  0  0
    2.4207    2.8000    0.0000 C   0  0  0  0  0  0  0  0  0  0  0  0
    0.0000    0.0024    0.0000 I   0  0  0  0  0  0  0  0  0  0  0  0
    2.4207    4.1951    0.0000 F   0  0  0  0  0  0  0  0  0  0  0  0
    4.8413    2.7976    0.0000 N   0  0  0  0  0  0  0  0  0  0  0  0
    6.0496    2.1000    0.0000 C   0  0  0  0  0  0  0  0  0  0  0  0
    6.0496    0.7000    0.0000 C   0  0  0  0  0  0  0  0  0  0  0  0
    7.2620    0.0000    0.0000 N   0  0  0  0  0  0  0  0  0  0  0  0
    8.4744    0.7000    0.0000 C   0  0  0  0  0  0  0  0  0  0  0  0
    8.4744    2.1000    0.0000 C   0  0  0  0  0  0  0  0  0  0  0  0
    7.2620    2.8000    0.0000 C   0  0  0  0  0  0  0  0  0  0  0  0
    7.2620    4.1951    0.0000 C   0  0  0  0  0  0  0  0  0  0  0  0
    8.4702    4.8927    0.0000 N   0  0  0  0  0  0  0  0  0  0  0  0
    6.0538    4.8927    0.0000 O   0  0  0  0  0  0  0  0  0  0  0  0
    9.6784    4.1951    0.0000 C   0  0  0  0  0  0  0  0  0  0  0  0
   10.8867    4.8927    0.0000 C   0  0  1  0  0  0  0  0  0  0  0  0
   12.0949    4.1951    0.0000 C   0  0  0  0  0  0  0  0  0  0  0  0
   13.3031    4.8927    0.0000 O   0  0  0  0  0  0  0  0  0  0  0  0
   10.8867    6.2879    0.0000 O   0  0  0  0  0  0  0  0  0  0  0  0
  1  2  2  0  0  0  0
  2  3  1  0  0  0  0
  3  4  2  0  0  0  0
  4  5  1  0  0  0  0
  5  6  2  0  0  0  0
  6  1  1  0  0  0  0
  2  7  1  0  0  0  0
  6  8  1  0  0  0  0
  5  9  1  0  0  0  0
  9 10  1  0  0  0  0
 10 11  2  0  0  0  0
 11 12  1  0  0  0  0
 12 13  2  0  0  0  0
 13 14  1  0  0  0  0
 14 15  2  0  0  0  0
 15 10  1  0  0  0  0
 15 16  1  0  0  0  0
 16 17  1  0  0  0  0
 16 18  2  0  0  0  0
 17 19  1  0  0  0  0
 19 20  1  0  0  0  0
 20 21  1  0  0  0  0
 21 22  1  0  0  0  0
 20 23  1  6  0  0  0
M  END
>  <Mol_ID> (93)
296

>  <Formula> (93)
C15H15FIN3O3

>  <MolWeight> (93)
431.2007732

>  <Cat> (93)
S1475

>  <Name> (93)
Pimasertib (AS-703026)

>  <Synonyms> (93)
MSC1936369B, SAR 245509

>  <Target> (93)
MEK 

>  <Form> (93)
Free Base

>  <CAS> (93)
1236699-92-5

>  <URL> (93)
http://www.selleckchem.com/products/AS703026.html

$$$$
SB525334.cdx
csChFnd80/05071909292D

 26 29  0  0  0  0  0  0  0  0999 V2000
    4.6789    4.4762    0.0000 C   0  0  0  0  0  0  0  0  0  0  0  0
    4.6789    3.0762    0.0000 C   0  0  0  0  0  0  0  0  0  0  0  0
    5.8914    2.3762    0.0000 C   0  0  0  0  0  0  0  0  0  0  0  0
    7.1038    3.0762    0.0000 C   0  0  0  0  0  0  0  0  0  0  0  0
    7.1038    4.4762    0.0000 C   0  0  0  0  0  0  0  0  0  0  0  0
    5.8914    5.1762    0.0000 C   0  0  0  0  0  0  0  0  0  0  0  0
    8.3162    2.3762    0.0000 N   0  0  0  0  0  0  0  0  0  0  0  0
    9.5287    3.0762    0.0000 C   0  0  0  0  0  0  0  0  0  0  0  0
    9.5287    4.4762    0.0000 C   0  0  0  0  0  0  0  0  0  0  0  0
    8.3162    5.1762    0.0000 N   0  0  0  0  0  0  0  0  0  0  0  0
    3.4707    5.1738    0.0000 C   0  0  0  0  0  0  0  0  0  0  0  0
    3.3244    6.5661    0.0000 N   0  0  0  0  0  0  0  0  0  0  0  0
    1.9550    6.8572    0.0000 C   0  0  0  0  0  0  0  0  0  0  0  0
    1.2550    5.6448    0.0000 N   0  0  0  0  0  0  0  0  0  0  0  0
    2.1917    4.6044    0.0000 C   0  0  0  0  0  0  0  0  0  0  0  0
    1.9017    3.2397    0.0000 C   0  0  0  0  0  0  0  0  0  0  0  0
    0.5702    2.8071    0.0000 C   0  0  0  0  0  0  0  0  0  0  0  0
    0.2791    1.4377    0.0000 C   0  0  0  0  0  0  0  0  0  0  0  0
    1.3195    0.5009    0.0000 C   0  0  0  0  0  0  0  0  0  0  0  0
    2.6510    0.9335    0.0000 C   0  0  0  0  0  0  0  0  0  0  0  0
    2.9421    2.3029    0.0000 N   0  0  0  0  0  0  0  0  0  0  0  0
    3.6878    0.0000    0.0000 C   0  0  0  0  0  0  0  0  0  0  0  0
    1.3875    8.1317    0.0000 C   0  0  0  0  0  0  0  0  0  0  0  0
    2.2075    9.2604    0.0000 C   0  0  0  0  0  0  0  0  0  0  0  0
    0.0000    8.2776    0.0000 C   0  0  0  0  0  0  0  0  0  0  0  0
    0.6875    9.3442    0.0000 C   0  0  0  0  0  0  0  0  0  0  0  0
  1  2  2  0  0  0  0
  2  3  1  0  0  0  0
  3  4  2  0  0  0  0
  4  5  1  0  0  0  0
  5  6  2  0  0  0  0
  6  1  1  0  0  0  0
  4  7  1  0  0  0  0
  7  8  2  0  0  0  0
  8  9  1  0  0  0  0
  9 10  2  0  0  0  0
 10  5  1  0  0  0  0
  1 11  1  0  0  0  0
 11 12  1  0  0  0  0
 12 13  1  0  0  0  0
 13 14  2  0  0  0  0
 14 15  1  0  0  0  0
 15 11  2  0  0  0  0
 15 16  1  0  0  0  0
 16 17  2  0  0  0  0
 17 18  1  0  0  0  0
 18 19  2  0  0  0  0
 19 20  1  0  0  0  0
 20 21  2  0  0  0  0
 21 16  1  0  0  0  0
 20 22  1  0  0  0  0
 13 23  1  0  0  0  0
 23 24  1  0  0  0  0
 23 25  1  0  0  0  0
 23 26  1  0  0  0  0
M  END
>  <Mol_ID> (94)
297

>  <Formula> (94)
C21H21N5

>  <MolWeight> (94)
343.42494

>  <Cat> (94)
S1476

>  <Name> (94)
SB 525334

>  <Synonyms> (94)
N/A

>  <Target> (94)
TGF-beta/Smad

>  <Form> (94)
Free Base

>  <CAS> (94)
356559-20-1

>  <URL> (94)
http://www.selleckchem.com/products/SB-525334.html

$$$$
HMN-214.cdx
csChFnd80/05071909292D

 30 32  0  0  0  0  0  0  0  0999 V2000
    6.0453    2.1000    0.0000 C   0  0  0  0  0  0  0  0  0  0  0  0
    6.0453    0.7000    0.0000 C   0  0  0  0  0  0  0  0  0  0  0  0
    7.2578    0.0000    0.0000 C   0  0  0  0  0  0  0  0  0  0  0  0
    8.4702    0.7000    0.0000 C   0  0  0  0  0  0  0  0  0  0  0  0
    8.4702    2.1000    0.0000 C   0  0  0  0  0  0  0  0  0  0  0  0
    7.2578    2.8000    0.0000 C   0  0  0  0  0  0  0  0  0  0  0  0
    9.6784    2.7976    0.0000 C   0  0  0  0  0  0  0  0  0  0  0  0
   10.8867    2.1000    0.0000 C   0  0  0  0  0  0  0  0  0  0  0  0
   12.0949    2.7976    0.0000 C   0  0  0  0  0  0  0  0  0  0  0  0
   13.3073    2.0976    0.0000 C   0  0  0  0  0  0  0  0  0  0  0  0
   14.5198    2.7976    0.0000 C   0  0  0  0  0  0  0  0  0  0  0  0
   14.5198    4.1976    0.0000 N   0  3  0  0  0  0  0  0  0  0  0  0
   13.3073    4.8976    0.0000 C   0  0  0  0  0  0  0  0  0  0  0  0
   12.0949    4.1976    0.0000 C   0  0  0  0  0  0  0  0  0  0  0  0
    7.2578    4.1951    0.0000 N   0  0  0  0  0  0  0  0  0  0  0  0
    6.0496    4.8927    0.0000 S   0  0  0  0  0  0  0  0  0  0  0  0
    8.4660    4.8927    0.0000 C   0  0  0  0  0  0  0  0  0  0  0  0
    9.6784    4.1927    0.0000 C   0  0  0  0  0  0  0  0  0  0  0  0
    8.4660    6.2879    0.0000 O   0  0  0  0  0  0  0  0  0  0  0  0
    4.8413    4.1951    0.0000 C   0  0  0  0  0  0  0  0  0  0  0  0
    7.0395    5.8827    0.0000 O   0  0  0  0  0  0  0  0  0  0  0  0
    4.8371    5.5927    0.0000 O   0  0  0  0  0  0  0  0  0  0  0  0
    3.6289    4.8951    0.0000 C   0  0  0  0  0  0  0  0  0  0  0  0
    2.4165    4.1951    0.0000 C   0  0  0  0  0  0  0  0  0  0  0  0
    2.4165    2.7951    0.0000 C   0  0  0  0  0  0  0  0  0  0  0  0
    3.6289    2.0951    0.0000 C   0  0  0  0  0  0  0  0  0  0  0  0
    4.8413    2.7951    0.0000 C   0  0  0  0  0  0  0  0  0  0  0  0
    1.2082    2.0976    0.0000 O   0  0  0  0  0  0  0  0  0  0  0  0
    0.0000    2.7951    0.0000 C   0  0  0  0  0  0  0  0  0  0  0  0
   15.7322    4.8976    0.0000 O   0  5  0  0  0  0  0  0  0  0  0  0
  1  2  2  0  0  0  0
  2  3  1  0  0  0  0
  3  4  2  0  0  0  0
  4  5  1  0  0  0  0
  5  6  2  0  0  0  0
  6  1  1  0  0  0  0
  5  7  1  0  0  0  0
  7  8  2  0  0  0  0
  8  9  1  0  0  0  0
  9 10  2  0  0  0  0
 10 11  1  0  0  0  0
 11 12  2  0  0  0  0
 12 13  1  0  0  0  0
 13 14  2  0  0  0  0
 14  9  1  0  0  0  0
  6 15  1  0  0  0  0
 15 16  1  0  0  0  0
 15 17  1  0  0  0  0
 17 18  1  0  0  0  0
 17 19  2  0  0  0  0
 16 20  1  0  0  0  0
 16 21  2  0  0  0  0
 16 22  2  0  0  0  0
 20 23  2  0  0  0  0
 23 24  1  0  0  0  0
 24 25  2  0  0  0  0
 25 26  1  0  0  0  0
 26 27  2  0  0  0  0
 27 20  1  0  0  0  0
 25 28  1  0  0  0  0
 28 29  1  0  0  0  0
 12 30  1  0  0  0  0
M  END
>  <Mol_ID> (95)
303

>  <Formula> (95)
C22H20N2O5S

>  <MolWeight> (95)
424.4696

>  <Cat> (95)
S1485

>  <Name> (95)
HMN-214

>  <Synonyms> (95)
N/A

>  <Target> (95)
PLK 

>  <Form> (95)
Free Base

>  <CAS> (95)
173529-46-9 

>  <URL> (95)
http://www.selleckchem.com/products/HMN-214.html

$$$$
AEE-788.cdx
csChFnd80/05071909292D

 33 37  0  0  0  0  0  0  0  0999 V2000
    1.2124    8.4000    0.0000 C   0  0  0  0  0  0  0  0  0  0  0  0
    1.2124    7.0000    0.0000 N   0  0  0  0  0  0  0  0  0  0  0  0
    2.4249    6.3000    0.0000 C   0  0  0  0  0  0  0  0  0  0  0  0
    3.6373    7.0000    0.0000 C   0  0  0  0  0  0  0  0  0  0  0  0
    3.6373    8.4000    0.0000 C   0  0  0  0  0  0  0  0  0  0  0  0
    2.4249    9.1000    0.0000 N   0  0  0  0  0  0  0  0  0  0  0  0
    4.9688    6.5674    0.0000 C   0  0  0  0  0  0  0  0  0  0  0  0
    5.7917    7.7000    0.0000 C   0  0  0  0  0  0  0  0  0  0  0  0
    4.9688    8.8326    0.0000 N   0  0  0  0  0  0  0  0  0  0  0  0
    7.1868    7.7000    0.0000 C   0  0  0  0  0  0  0  0  0  0  0  0
    7.8868    6.4876    0.0000 C   0  0  0  0  0  0  0  0  0  0  0  0
    9.2868    6.4876    0.0000 C   0  0  0  0  0  0  0  0  0  0  0  0
    9.9868    7.7000    0.0000 C   0  0  0  0  0  0  0  0  0  0  0  0
    9.2868    8.9124    0.0000 C   0  0  0  0  0  0  0  0  0  0  0  0
    7.8868    8.9124    0.0000 C   0  0  0  0  0  0  0  0  0  0  0  0
   11.3820    7.7000    0.0000 C   0  0  0  0  0  0  0  0  0  0  0  0
   12.0820    6.4876    0.0000 N   0  0  0  0  0  0  0  0  0  0  0  0
   11.3820    5.2751    0.0000 C   0  0  0  0  0  0  0  0  0  0  0  0
   12.0820    4.0627    0.0000 C   0  0  0  0  0  0  0  0  0  0  0  0
   13.4820    4.0627    0.0000 N   0  0  0  0  0  0  0  0  0  0  0  0
   14.1820    5.2751    0.0000 C   0  0  0  0  0  0  0  0  0  0  0  0
   13.4820    6.4876    0.0000 C   0  0  0  0  0  0  0  0  0  0  0  0
   14.1795    2.8545    0.0000 C   0  0  0  0  0  0  0  0  0  0  0  0
   15.5795    2.8545    0.0000 C   0  0  0  0  0  0  0  0  0  0  0  0
    2.4249    4.9000    0.0000 N   0  0  0  0  0  0  0  0  0  0  0  0
    1.2124    4.2000    0.0000 C   0  0  1  0  0  0  0  0  0  0  0  0
    1.2124    2.8000    0.0000 C   0  0  0  0  0  0  0  0  0  0  0  0
    0.0000    2.1000    0.0000 C   0  0  0  0  0  0  0  0  0  0  0  0
    0.0000    0.7000    0.0000 C   0  0  0  0  0  0  0  0  0  0  0  0
    1.2124    0.0000    0.0000 C   0  0  0  0  0  0  0  0  0  0  0  0
    2.4249    0.7000    0.0000 C   0  0  0  0  0  0  0  0  0  0  0  0
    2.4249    2.1000    0.0000 C   0  0  0  0  0  0  0  0  0  0  0  0
    0.0000    4.9000    0.0000 C   0  0  0  0  0  0  0  0  0  0  0  0
  1  2  2  0  0  0  0
  2  3  1  0  0  0  0
  3  4  2  0  0  0  0
  4  5  1  0  0  0  0
  5  6  2  0  0  0  0
  6  1  1  0  0  0  0
  4  7  1  0  0  0  0
  7  8  2  0  0  0  0
  8  9  1  0  0  0  0
  9  5  1  0  0  0  0
  8 10  1  0  0  0  0
 10 11  2  0  0  0  0
 11 12  1  0  0  0  0
 12 13  2  0  0  0  0
 13 14  1  0  0  0  0
 14 15  2  0  0  0  0
 15 10  1  0  0  0  0
 13 16  1  0  0  0  0
 16 17  1  0  0  0  0
 17 18  1  0  0  0  0
 18 19  1  0  0  0  0
 19 20  1  0  0  0  0
 20 21  1  0  0  0  0
 21 22  1  0  0  0  0
 22 17  1  0  0  0  0
 20 23  1  0  0  0  0
 23 24  1  0  0  0  0
  3 25  1  0  0  0  0
 25 26  1  0  0  0  0
 26 27  1  0  0  0  0
 27 28  2  0  0  0  0
 28 29  1  0  0  0  0
 29 30  2  0  0  0  0
 30 31  1  0  0  0  0
 31 32  2  0  0  0  0
 32 27  1  0  0  0  0
 26 33  1  1  0  0  0
M  END
>  <Mol_ID> (96)
304

>  <Formula> (96)
C27H32N6

>  <MolWeight> (96)
440.58318

>  <Cat> (96)
S1486

>  <Name> (96)
AEE788 (NVP-AEE788)

>  <Synonyms> (96)
N/A 

>  <Target> (96)
EGFR, Flt, VEGFR, HER2

>  <Form> (96)
Free Base

>  <CAS> (96)
497839-62-0

>  <URL> (96)
http://www.selleckchem.com/products/AEE788.html

$$$$
PHA-793887.cdx
csChFnd80/05071909292D

 26 28  0  0  0  0  0  0  0  0999 V2000
    2.9815    8.2241    0.0000 N   0  0  0  0  0  0  0  0  0  0  0  0
    1.7690    7.5241    0.0000 N   0  0  0  0  0  0  0  0  0  0  0  0
    2.0601    6.1547    0.0000 C   0  0  0  0  0  0  0  0  0  0  0  0
    3.4524    6.0083    0.0000 C   0  0  0  0  0  0  0  0  0  0  0  0
    4.0219    7.2873    0.0000 C   0  0  0  0  0  0  0  0  0  0  0  0
    4.4928    5.0715    0.0000 C   0  0  0  0  0  0  0  0  0  0  0  0
    5.7053    5.7715    0.0000 N   0  0  0  0  0  0  0  0  0  0  0  0
    5.4142    7.1409    0.0000 C   0  0  0  0  0  0  0  0  0  0  0  0
    5.7765    8.4932    0.0000 C   0  0  0  0  0  0  0  0  0  0  0  0
    6.7665    7.5033    0.0000 C   0  0  0  0  0  0  0  0  0  0  0  0
    7.0576    5.4092    0.0000 C   0  0  0  0  0  0  0  0  0  0  0  0
    7.4199    4.0569    0.0000 C   0  0  0  0  0  0  0  0  0  0  0  0
    6.4300    3.0669    0.0000 C   0  0  0  0  0  0  0  0  0  0  0  0
    6.7923    1.7146    0.0000 C   0  0  0  0  0  0  0  0  0  0  0  0
    8.1446    1.3523    0.0000 N   0  0  0  0  0  0  0  0  0  0  0  0
    9.1346    2.3422    0.0000 C   0  0  0  0  0  0  0  0  0  0  0  0
    8.7722    3.6945    0.0000 C   0  0  0  0  0  0  0  0  0  0  0  0
    8.0441    6.3957    0.0000 O   0  0  0  0  0  0  0  0  0  0  0  0
    8.5070    0.0000    0.0000 C   0  0  0  0  0  0  0  0  0  0  0  0
    1.1266    5.1179    0.0000 N   0  0  0  0  0  0  0  0  0  0  0  0
    1.5577    3.7910    0.0000 C   0  0  0  0  0  0  0  0  0  0  0  0
    0.6242    2.7542    0.0000 C   0  0  0  0  0  0  0  0  0  0  0  0
    2.9224    3.5009    0.0000 O   0  0  0  0  0  0  0  0  0  0  0  0
    0.9865    1.4019    0.0000 C   0  0  0  0  0  0  0  0  0  0  0  0
    0.0000    0.4154    0.0000 C   0  0  0  0  0  0  0  0  0  0  0  0
    2.3341    1.0408    0.0000 C   0  0  0  0  0  0  0  0  0  0  0  0
  1  2  1  0  0  0  0
  2  3  2  0  0  0  0
  3  4  1  0  0  0  0
  4  5  2  0  0  0  0
  5  1  1  0  0  0  0
  4  6  1  0  0  0  0
  6  7  1  0  0  0  0
  7  8  1  0  0  0  0
  8  5  1  0  0  0  0
  8  9  1  0  0  0  0
  8 10  1  0  0  0  0
  7 11  1  0  0  0  0
 11 12  1  0  0  0  0
 12 13  1  0  0  0  0
 13 14  1  0  0  0  0
 14 15  1  0  0  0  0
 15 16  1  0  0  0  0
 16 17  1  0  0  0  0
 17 12  1  0  0  0  0
 11 18  2  0  0  0  0
 15 19  1  0  0  0  0
  3 20  1  0  0  0  0
 20 21  1  0  0  0  0
 21 22  1  0  0  0  0
 21 23  2  0  0  0  0
 22 24  1  0  0  0  0
 24 25  1  0  0  0  0
 24 26  1  0  0  0  0
M  END
>  <Mol_ID> (97)
305

>  <Formula> (97)
C19H31N5O2

>  <MolWeight> (97)
361.48174

>  <Cat> (97)
S1487

>  <Name> (97)
PHA-793887

>  <Synonyms> (97)
N/A

>  <Target> (97)
CDK

>  <Form> (97)
Free Base

>  <CAS> (97)
718630-59-2

>  <URL> (97)
http://www.selleckchem.com/products/PHA-793887.html

$$$$

csChFnd80/05071909292D

 24 25  0  0  0  0  0  0  0  0999 V2000
    8.1936   -3.4999    0.0000 C   0  0  0  0  0  0  0  0  0  0  0  0
    8.1936   -4.8999    0.0000 C   0  0  0  0  0  0  0  0  0  0  0  0
    9.4060   -5.5999    0.0000 C   0  0  0  0  0  0  0  0  0  0  0  0
   10.6184   -4.8999    0.0000 C   0  0  0  0  0  0  0  0  0  0  0  0
   10.6184   -3.4999    0.0000 C   0  0  0  0  0  0  0  0  0  0  0  0
    9.4060   -2.7999    0.0000 C   0  0  0  0  0  0  0  0  0  0  0  0
   11.8267   -5.5974    0.0000 C   0  0  0  0  0  0  0  0  0  0  0  0
    6.9853   -2.8023    0.0000 Cl  0  0  0  0  0  0  0  0  0  0  0  0
    6.9853   -5.5974    0.0000 S   0  0  0  0  0  0  0  0  0  0  0  0
    7.9753   -6.5874    0.0000 O   0  0  0  0  0  0  0  0  0  0  0  0
    5.7729   -6.2974    0.0000 O   0  0  0  0  0  0  0  0  0  0  0  0
   11.9730   -6.9898    0.0000 S   0  0  0  0  0  0  0  0  0  0  0  0
   13.3424   -7.2809    0.0000 C   0  0  0  0  0  0  0  0  0  0  0  0
   14.0424   -6.0684    0.0000 N   0  0  0  0  0  0  0  0  0  0  0  0
   13.1056   -5.0280    0.0000 C   0  0  0  0  0  0  0  0  0  0  0  0
   13.4680   -3.6757    0.0000 C   0  0  0  0  0  0  0  0  0  0  0  0
   13.9099   -8.5554    0.0000 N   0  0  0  0  0  0  0  0  0  0  0  0
   13.0898   -9.6841    0.0000 C   0  0  0  0  0  0  0  0  0  0  0  0
   13.6573  -10.9586    0.0000 C   0  0  0  0  0  0  0  0  0  0  0  0
   11.7023   -9.5382    0.0000 O   0  0  0  0  0  0  0  0  0  0  0  0
    6.2878   -4.3892    0.0000 N   0  0  0  0  0  0  0  0  0  0  0  0
    4.8926   -4.3892    0.0000 C   0  0  0  0  0  0  0  0  0  0  0  0
    4.1950   -3.1810    0.0000 C   0  0  0  0  0  0  0  0  0  0  0  0
    2.7999   -3.1810    0.0000 O   0  0  0  0  0  0  0  0  0  0  0  0
  1  2  2  0  0  0  0
  2  3  1  0  0  0  0
  3  4  2  0  0  0  0
  4  5  1  0  0  0  0
  5  6  2  0  0  0  0
  6  1  1  0  0  0  0
  4  7  1  0  0  0  0
  1  8  1  0  0  0  0
  2  9  1  0  0  0  0
  9 10  2  0  0  0  0
  9 11  2  0  0  0  0
  7 12  1  0  0  0  0
 12 13  1  0  0  0  0
 13 14  2  0  0  0  0
 14 15  1  0  0  0  0
 15  7  2  0  0  0  0
 15 16  1  0  0  0  0
 13 17  1  0  0  0  0
 17 18  1  0  0  0  0
 18 19  1  0  0  0  0
 18 20  2  0  0  0  0
  9 21  1  0  0  0  0
 21 22  1  0  0  0  0
 22 23  1  0  0  0  0
 23 24  1  0  0  0  0
M  END
>  <Mol_ID> (98)
307

>  <Formula> (98)
C14H16ClN3O4S2

>  <MolWeight> (98)
389.87754

>  <Cat> (98)
S1489

>  <Name> (98)
PIK-93

>  <Synonyms> (98)
N/A

>  <Target> (98)
PI3K, VEGFR

>  <Form> (98)
Free Base

>  <CAS> (98)
593960-11-3

>  <URL> (98)
http://www.selleckchem.com/products/PIK-93.html

$$$$
AP24534.cdx
csChFnd80/05071909292D

 39 43  0  0  0  0  0  0  0  0999 V2000
    0.0000   11.2745    0.0000 C   0  0  0  0  0  0  0  0  0  0  0  0
    0.0000    9.8745    0.0000 C   0  0  0  0  0  0  0  0  0  0  0  0
    1.2124    9.1745    0.0000 N   0  0  0  0  0  0  0  0  0  0  0  0
    2.4249    9.8745    0.0000 N   0  0  0  0  0  0  0  0  0  0  0  0
    2.4249   11.2745    0.0000 C   0  0  0  0  0  0  0  0  0  0  0  0
    1.2124   11.9745    0.0000 C   0  0  0  0  0  0  0  0  0  0  0  0
    3.7564    9.4419    0.0000 C   0  0  0  0  0  0  0  0  0  0  0  0
    4.5793   10.5745    0.0000 C   0  0  0  0  0  0  0  0  0  0  0  0
    3.7564   11.7071    0.0000 N   0  0  0  0  0  0  0  0  0  0  0  0
    4.1875    8.1150    0.0000 C   0  0  0  0  0  0  0  0  0  0  0  0
    4.6153    6.7928    0.0000 C   0  0  0  0  0  0  0  0  0  0  0  0
    5.0430    5.4657    0.0000 C   0  0  0  0  0  0  0  0  0  0  0  0
    4.1038    4.4275    0.0000 C   0  0  0  0  0  0  0  0  0  0  0  0
    4.5333    3.0950    0.0000 C   0  0  0  0  0  0  0  0  0  0  0  0
    5.9021    2.8008    0.0000 C   0  0  0  0  0  0  0  0  0  0  0  0
    6.8413    3.8390    0.0000 C   0  0  0  0  0  0  0  0  0  0  0  0
    6.4118    5.1715    0.0000 C   0  0  0  0  0  0  0  0  0  0  0  0
    2.7398    4.7208    0.0000 C   0  0  0  0  0  0  0  0  0  0  0  0
    8.2052    3.5457    0.0000 C   0  0  0  0  0  0  0  0  0  0  0  0
    8.6333    2.2179    0.0000 O   0  0  0  0  0  0  0  0  0  0  0  0
    9.1412    4.5803    0.0000 N   0  0  0  0  0  0  0  0  0  0  0  0
   10.5052    4.2871    0.0000 C   0  0  0  0  0  0  0  0  0  0  0  0
   10.9347    2.9546    0.0000 C   0  0  0  0  0  0  0  0  0  0  0  0
   12.3034    2.6603    0.0000 C   0  0  0  0  0  0  0  0  0  0  0  0
   13.2426    3.6986    0.0000 C   0  0  0  0  0  0  0  0  0  0  0  0
   12.8131    5.0310    0.0000 C   0  0  0  0  0  0  0  0  0  0  0  0
   11.4444    5.3253    0.0000 C   0  0  0  0  0  0  0  0  0  0  0  0
   12.7314    1.3325    0.0000 C   0  0  0  0  0  0  0  0  0  0  0  0
   13.1610    0.0000    0.0000 F   0  0  0  0  0  0  0  0  0  0  0  0
   11.3990    0.9030    0.0000 F   0  0  0  0  0  0  0  0  0  0  0  0
   14.0639    1.7620    0.0000 F   0  0  0  0  0  0  0  0  0  0  0  0
   14.6066    3.4053    0.0000 C   0  0  0  0  0  0  0  0  0  0  0  0
   15.5425    4.4399    0.0000 N   0  0  0  0  0  0  0  0  0  0  0  0
   16.9113    4.1457    0.0000 C   0  0  0  0  0  0  0  0  0  0  0  0
   17.8505    5.1839    0.0000 C   0  0  0  0  0  0  0  0  0  0  0  0
   17.4209    6.5164    0.0000 N   0  0  0  0  0  0  0  0  0  0  0  0
   16.0522    6.8106    0.0000 C   0  0  0  0  0  0  0  0  0  0  0  0
   15.1130    5.7724    0.0000 C   0  0  0  0  0  0  0  0  0  0  0  0
   18.3569    7.5510    0.0000 C   0  0  0  0  0  0  0  0  0  0  0  0
  1  2  1  0  0  0  0
  2  3  2  0  0  0  0
  3  4  1  0  0  0  0
  4  5  1  0  0  0  0
  5  6  1  0  0  0  0
  6  1  2  0  0  0  0
  4  7  1  0  0  0  0
  7  8  2  0  0  0  0
  8  9  1  0  0  0  0
  9  5  2  0  0  0  0
  7 10  1  0  0  0  0
 10 11  3  0  0  0  0
 11 12  1  0  0  0  0
 12 13  2  0  0  0  0
 13 14  1  0  0  0  0
 14 15  2  0  0  0  0
 15 16  1  0  0  0  0
 16 17  2  0  0  0  0
 17 12  1  0  0  0  0
 13 18  1  0  0  0  0
 16 19  1  0  0  0  0
 19 20  2  0  0  0  0
 19 21  1  0  0  0  0
 21 22  1  0  0  0  0
 22 23  2  0  0  0  0
 23 24  1  0  0  0  0
 24 25  2  0  0  0  0
 25 26  1  0  0  0  0
 26 27  2  0  0  0  0
 27 22  1  0  0  0  0
 24 28  1  0  0  0  0
 25 32  1  0  0  0  0
 32 33  1  0  0  0  0
 33 34  1  0  0  0  0
 34 35  1  0  0  0  0
 35 36  1  0  0  0  0
 36 37  1  0  0  0  0
 37 38  1  0  0  0  0
 38 33  1  0  0  0  0
 36 39  1  0  0  0  0
 28 29  1  0  0  0  0
 28 30  1  0  0  0  0
 28 31  1  0  0  0  0
M  END
>  <Mol_ID> (99)
308

>  <Formula> (99)
C29H27F3N6O

>  <MolWeight> (99)
532.5594896

>  <Cat> (99)
S1490

>  <Name> (99)
Ponatinib (AP24534)

>  <Synonyms> (99)
N/A 

>  <Target> (99)
Bcr-Abl, VEGFR, FGFR, PDGFR, Flt

>  <Form> (99)
Free Base

>  <CAS> (99)
943319-70-8

>  <URL> (99)
http://www.selleckchem.com/products/AP24534.html

$$$$
P529.cdx
csChFnd80/05071909292D

 30 33  0  0  0  0  0  0  0  0999 V2000
    2.8000    3.6415    0.0000 C   0  0  0  0  0  0  0  0  0  0  0  0
    2.1000    2.4291    0.0000 C   0  0  0  0  0  0  0  0  0  0  0  0
    2.8000    1.2167    0.0000 C   0  0  0  0  0  0  0  0  0  0  0  0
    4.2000    1.2167    0.0000 C   0  0  0  0  0  0  0  0  0  0  0  0
    4.9000    2.4291    0.0000 C   0  0  0  0  0  0  0  0  0  0  0  0
    4.2000    3.6415    0.0000 C   0  0  0  0  0  0  0  0  0  0  0  0
    0.7000    2.4291    0.0000 O   0  0  0  0  0  0  0  0  0  0  0  0
    0.0000    1.2167    0.0000 C   0  0  0  0  0  0  0  0  0  0  0  0
    6.3000    2.4291    0.0000 C   0  0  0  0  0  0  0  0  0  0  0  0
    7.0000    3.6415    0.0000 O   0  0  0  0  0  0  0  0  0  0  0  0
    8.4000    3.6415    0.0000 C   0  0  0  0  0  0  0  0  0  0  0  0
    9.1024    2.4249    0.0000 C   0  0  0  0  0  0  0  0  0  0  0  0
   10.5073    2.4249    0.0000 C   0  0  0  0  0  0  0  0  0  0  0  0
   11.2097    3.6415    0.0000 C   0  0  0  0  0  0  0  0  0  0  0  0
   10.5073    4.8582    0.0000 C   0  0  0  0  0  0  0  0  0  0  0  0
    9.1024    4.8582    0.0000 C   0  0  0  0  0  0  0  0  0  0  0  0
    8.4024    1.2124    0.0000 O   0  0  0  0  0  0  0  0  0  0  0  0
    9.1024    0.0000    0.0000 C   0  0  0  0  0  0  0  0  0  0  0  0
   12.6146    3.6415    0.0000 C   0  0  0  0  0  0  0  0  0  0  0  0
   13.3171    4.8582    0.0000 C   0  0  0  0  0  0  0  0  0  0  0  0
   12.6146    6.0748    0.0000 C   0  0  0  0  0  0  0  0  0  0  0  0
   11.2097    6.0748    0.0000 O   0  0  0  0  0  0  0  0  0  0  0  0
   13.3171    2.4249    0.0000 C   0  0  0  0  0  0  0  0  0  0  0  0
   14.7219    2.4249    0.0000 C   0  0  0  0  0  0  0  0  0  0  0  0
   15.4244    3.6415    0.0000 C   0  0  0  0  0  0  0  0  0  0  0  0
   14.7219    4.8582    0.0000 C   0  0  0  0  0  0  0  0  0  0  0  0
   13.3146    7.2873    0.0000 O   0  0  0  0  0  0  0  0  0  0  0  0
   16.8244    3.6415    0.0000 C   0  0  3  0  0  0  0  0  0  0  0  0
   17.5244    2.4291    0.0000 C   0  0  0  0  0  0  0  0  0  0  0  0
   17.5244    4.8540    0.0000 O   0  0  0  0  0  0  0  0  0  0  0  0
  1  2  2  0  0  0  0
  2  3  1  0  0  0  0
  3  4  2  0  0  0  0
  4  5  1  0  0  0  0
  5  6  2  0  0  0  0
  6  1  1  0  0  0  0
  2  7  1  0  0  0  0
  7  8  1  0  0  0  0
  5  9  1  0  0  0  0
  9 10  1  0  0  0  0
 10 11  1  0  0  0  0
 11 12  2  0  0  0  0
 12 13  1  0  0  0  0
 13 14  2  0  0  0  0
 14 15  1  0  0  0  0
 15 16  2  0  0  0  0
 16 11  1  0  0  0  0
 12 17  1  0  0  0  0
 17 18  1  0  0  0  0
 14 19  1  0  0  0  0
 19 20  2  0  0  0  0
 20 21  1  0  0  0  0
 21 22  1  0  0  0  0
 22 15  1  0  0  0  0
 19 23  1  0  0  0  0
 23 24  2  0  0  0  0
 24 25  1  0  0  0  0
 25 26  2  0  0  0  0
 26 20  1  0  0  0  0
 21 27  2  0  0  0  0
 25 28  1  0  0  0  0
 28 29  1  0  0  0  0
 28 30  1  0  0  0  0
M  END
>  <Mol_ID> (100)
317

>  <Formula> (100)
C24H22O6

>  <MolWeight> (100)
406.42788

>  <Cat> (100)
S2238

>  <Name> (100)
Palomid 529

>  <Synonyms> (100)
P529

>  <Target> (100)
mTOR

>  <Form> (100)
Free Base

>  <CAS> (100)
914913-88-5

>  <URL> (100)
http://www.selleckchem.com/products/Palomid-529-P529.html

$$$$
XL-765.cdx
csChFnd80/05071909292D

 43 47  0  0  0  0  0  0  0  0999 V2000
    2.8000    6.0538    0.0000 C   0  0  0  0  0  0  0  0  0  0  0  0
    2.1000    7.2662    0.0000 C   0  0  0  0  0  0  0  0  0  0  0  0
    0.7000    7.2662    0.0000 C   0  0  0  0  0  0  0  0  0  0  0  0
    0.0000    6.0538    0.0000 C   0  0  0  0  0  0  0  0  0  0  0  0
    0.7000    4.8413    0.0000 C   0  0  0  0  0  0  0  0  0  0  0  0
    2.1000    4.8413    0.0000 C   0  0  0  0  0  0  0  0  0  0  0  0
    2.8000    3.6289    0.0000 N   0  0  0  0  0  0  0  0  0  0  0  0
    4.2000    3.6289    0.0000 C   0  0  0  0  0  0  0  0  0  0  0  0
    4.9000    4.8413    0.0000 C   0  0  0  0  0  0  0  0  0  0  0  0
    4.2000    6.0538    0.0000 N   0  0  0  0  0  0  0  0  0  0  0  0
    6.2951    4.8413    0.0000 N   0  0  0  0  0  0  0  0  0  0  0  0
    6.9927    6.0496    0.0000 C   0  0  0  0  0  0  0  0  0  0  0  0
    8.3927    6.0496    0.0000 C   0  0  0  0  0  0  0  0  0  0  0  0
    9.0927    7.2620    0.0000 C   0  0  0  0  0  0  0  0  0  0  0  0
    8.3927    8.4744    0.0000 C   0  0  0  0  0  0  0  0  0  0  0  0
    6.9927    8.4744    0.0000 C   0  0  0  0  0  0  0  0  0  0  0  0
    6.2927    7.2620    0.0000 C   0  0  0  0  0  0  0  0  0  0  0  0
   10.4879    7.2620    0.0000 O   0  0  0  0  0  0  0  0  0  0  0  0
   11.1854    8.4702    0.0000 C   0  0  0  0  0  0  0  0  0  0  0  0
    6.2951    9.6826    0.0000 O   0  0  0  0  0  0  0  0  0  0  0  0
    6.9927   10.8909    0.0000 C   0  0  0  0  0  0  0  0  0  0  0  0
    4.8976    2.4207    0.0000 N   0  0  0  0  0  0  0  0  0  0  0  0
    6.2976    2.4207    0.0000 S   0  0  0  0  0  0  0  0  0  0  0  0
    7.6976    2.4207    0.0000 C   0  0  0  0  0  0  0  0  0  0  0  0
    6.2976    3.8207    0.0000 O   0  0  0  0  0  0  0  0  0  0  0  0
    6.2976    1.0255    0.0000 O   0  0  0  0  0  0  0  0  0  0  0  0
    8.3976    1.2082    0.0000 C   0  0  0  0  0  0  0  0  0  0  0  0
    9.7976    1.2082    0.0000 C   0  0  0  0  0  0  0  0  0  0  0  0
   10.4976    2.4207    0.0000 C   0  0  0  0  0  0  0  0  0  0  0  0
    9.7976    3.6331    0.0000 C   0  0  0  0  0  0  0  0  0  0  0  0
    8.3976    3.6331    0.0000 C   0  0  0  0  0  0  0  0  0  0  0  0
   11.8927    2.4207    0.0000 N   0  0  0  0  0  0  0  0  0  0  0  0
   12.5903    1.2124    0.0000 C   0  0  0  0  0  0  0  0  0  0  0  0
   11.8927    0.0042    0.0000 O   0  0  0  0  0  0  0  0  0  0  0  0
   13.9854    1.2124    0.0000 C   0  0  0  0  0  0  0  0  0  0  0  0
   14.6854    0.0000    0.0000 C   0  0  0  0  0  0  0  0  0  0  0  0
   16.0854    0.0000    0.0000 C   0  0  0  0  0  0  0  0  0  0  0  0
   16.7854    1.2124    0.0000 C   0  0  0  0  0  0  0  0  0  0  0  0
   16.0854    2.4249    0.0000 C   0  0  0  0  0  0  0  0  0  0  0  0
   14.6854    2.4249    0.0000 C   0  0  0  0  0  0  0  0  0  0  0  0
   16.7830    3.6331    0.0000 O   0  0  0  0  0  0  0  0  0  0  0  0
   18.1830    3.6331    0.0000 C   0  0  0  0  0  0  0  0  0  0  0  0
   18.1806    1.2124    0.0000 C   0  0  0  0  0  0  0  0  0  0  0  0
  1  2  2  0  0  0  0
  2  3  1  0  0  0  0
  3  4  2  0  0  0  0
  4  5  1  0  0  0  0
  5  6  2  0  0  0  0
  6  1  1  0  0  0  0
  6  7  1  0  0  0  0
  7  8  2  0  0  0  0
  8  9  1  0  0  0  0
  9 10  2  0  0  0  0
 10  1  1  0  0  0  0
  9 11  1  0  0  0  0
 11 12  1  0  0  0  0
 12 13  2  0  0  0  0
 13 14  1  0  0  0  0
 14 15  2  0  0  0  0
 15 16  1  0  0  0  0
 16 17  2  0  0  0  0
 17 12  1  0  0  0  0
 14 18  1  0  0  0  0
 18 19  1  0  0  0  0
 16 20  1  0  0  0  0
 20 21  1  0  0  0  0
  8 22  1  0  0  0  0
 22 23  1  0  0  0  0
 23 24  1  0  0  0  0
 23 25  2  0  0  0  0
 23 26  2  0  0  0  0
 24 27  2  0  0  0  0
 27 28  1  0  0  0  0
 28 29  2  0  0  0  0
 29 30  1  0  0  0  0
 30 31  2  0  0  0  0
 31 24  1  0  0  0  0
 29 32  1  0  0  0  0
 32 33  1  0  0  0  0
 33 34  2  0  0  0  0
 33 35  1  0  0  0  0
 35 36  2  0  0  0  0
 36 37  1  0  0  0  0
 37 38  2  0  0  0  0
 38 39  1  0  0  0  0
 39 40  2  0  0  0  0
 40 35  1  0  0  0  0
 39 41  1  0  0  0  0
 41 42  1  0  0  0  0
 38 43  1  0  0  0  0
M  END
>  <Mol_ID> (101)
318

>  <Formula> (101)
C31H29N5O6S

>  <MolWeight> (101)
599.65686

>  <Cat> (101)
S1523

>  <Name> (101)
XL765

>  <Synonyms> (101)
N/A 

>  <Target> (101)
PI3K, mTOR

>  <Form> (101)
Free Base

>  <CAS> (101)
1349796-36-6

>  <URL> (101)
http://www.selleckchem.com/products/XL765(SAR245409).html#

$$$$
AT7519.cdx
csChFnd80/05071909292D

 25 27  0  0  0  0  0  0  0  0999 V2000
    1.2082    7.7422    0.0000 C   0  0  0  0  0  0  0  0  0  0  0  0
    1.2082    6.3422    0.0000 C   0  0  0  0  0  0  0  0  0  0  0  0
    2.4207    5.6422    0.0000 C   0  0  0  0  0  0  0  0  0  0  0  0
    3.6331    6.3422    0.0000 C   0  0  0  0  0  0  0  0  0  0  0  0
    3.6331    7.7422    0.0000 C   0  0  0  0  0  0  0  0  0  0  0  0
    2.4207    8.4422    0.0000 C   0  0  0  0  0  0  0  0  0  0  0  0
    0.0000    5.6447    0.0000 Cl  0  0  0  0  0  0  0  0  0  0  0  0
    4.8413    5.6447    0.0000 Cl  0  0  0  0  0  0  0  0  0  0  0  0
    2.4207    4.2471    0.0000 C   0  0  0  0  0  0  0  0  0  0  0  0
    3.6289    3.5495    0.0000 N   0  0  0  0  0  0  0  0  0  0  0  0
    1.2124    3.5495    0.0000 O   0  0  0  0  0  0  0  0  0  0  0  0
    3.6289    2.1544    0.0000 C   0  0  0  0  0  0  0  0  0  0  0  0
    2.4963    1.3315    0.0000 C   0  0  0  0  0  0  0  0  0  0  0  0
    2.9289    0.0000    0.0000 N   0  0  0  0  0  0  0  0  0  0  0  0
    4.3289    0.0000    0.0000 N   0  0  0  0  0  0  0  0  0  0  0  0
    4.7615    1.3315    0.0000 C   0  0  0  0  0  0  0  0  0  0  0  0
    6.0884    1.7626    0.0000 C   0  0  0  0  0  0  0  0  0  0  0  0
    6.3784    3.1273    0.0000 O   0  0  0  0  0  0  0  0  0  0  0  0
    7.1252    0.8291    0.0000 N   0  0  0  0  0  0  0  0  0  0  0  0
    8.4520    1.2602    0.0000 C   0  0  0  0  0  0  0  0  0  0  0  0
    9.4924    0.3234    0.0000 C   0  0  0  0  0  0  0  0  0  0  0  0
   10.8239    0.7560    0.0000 C   0  0  0  0  0  0  0  0  0  0  0  0
   11.1150    2.1254    0.0000 N   0  0  0  0  0  0  0  0  0  0  0  0
   10.0746    3.0622    0.0000 C   0  0  0  0  0  0  0  0  0  0  0  0
    8.7431    2.6296    0.0000 C   0  0  0  0  0  0  0  0  0  0  0  0
  1  2  2  0  0  0  0
  2  3  1  0  0  0  0
  3  4  2  0  0  0  0
  4  5  1  0  0  0  0
  5  6  2  0  0  0  0
  6  1  1  0  0  0  0
  2  7  1  0  0  0  0
  4  8  1  0  0  0  0
  3  9  1  0  0  0  0
  9 10  1  0  0  0  0
  9 11  2  0  0  0  0
 10 12  1  0  0  0  0
 12 13  2  0  0  0  0
 13 14  1  0  0  0  0
 14 15  1  0  0  0  0
 15 16  2  0  0  0  0
 16 12  1  0  0  0  0
 16 17  1  0  0  0  0
 17 18  2  0  0  0  0
 17 19  1  0  0  0  0
 19 20  1  0  0  0  0
 20 21  1  0  0  0  0
 21 22  1  0  0  0  0
 22 23  1  0  0  0  0
 23 24  1  0  0  0  0
 24 25  1  0  0  0  0
 25 20  1  0  0  0  0
M  END
>  <Mol_ID> (102)
319

>  <Formula> (102)
C16H17Cl2N5O2

>  <MolWeight> (102)
382.24448

>  <Cat> (102)
S1524

>  <Name> (102)
AT7519

>  <Synonyms> (102)
N/A

>  <Target> (102)
CDK 

>  <Form> (102)
Free Base

>  <CAS> (102)
844442-38-2

>  <URL> (102)
http://www.selleckchem.com/products/AT7519.html

$$$$
MK-1775.cdx
csChFnd80/05071909292D

 37 41  0  0  0  0  0  0  0  0999 V2000
    5.7278    7.6319    0.0000 C   0  0  0  0  0  0  0  0  0  0  0  0
    4.7379    6.6420    0.0000 C   0  0  0  0  0  0  0  0  0  0  0  0
    5.1002    5.2897    0.0000 C   0  0  0  0  0  0  0  0  0  0  0  0
    6.4525    4.9274    0.0000 N   0  0  0  0  0  0  0  0  0  0  0  0
    7.4425    5.9173    0.0000 C   0  0  0  0  0  0  0  0  0  0  0  0
    7.0801    7.2696    0.0000 C   0  0  0  0  0  0  0  0  0  0  0  0
    8.7901    5.5562    0.0000 C   0  0  0  0  0  0  0  0  0  0  0  0
    9.7766    6.5427    0.0000 O   0  0  0  0  0  0  0  0  0  0  0  0
    8.4277    6.9085    0.0000 C   0  0  0  0  0  0  0  0  0  0  0  0
    9.1524    4.2039    0.0000 C   0  0  0  0  0  0  0  0  0  0  0  0
    4.1137    4.3032    0.0000 N   0  0  0  0  0  0  0  0  0  0  0  0
    2.7309    4.5222    0.0000 N   0  0  0  0  0  0  0  0  0  0  0  0
    2.0954    3.2748    0.0000 C   0  0  0  0  0  0  0  0  0  0  0  0
    3.0853    2.2848    0.0000 C   0  0  0  0  0  0  0  0  0  0  0  0
    4.3327    2.9204    0.0000 C   0  0  0  0  0  0  0  0  0  0  0  0
    3.0120    0.8868    0.0000 C   0  0  0  0  0  0  0  0  0  0  0  0
    4.1862    0.1243    0.0000 N   0  0  0  0  0  0  0  0  0  0  0  0
    5.4336    0.7598    0.0000 C   0  0  0  0  0  0  0  0  0  0  0  0
    5.5069    2.1579    0.0000 N   0  0  0  0  0  0  0  0  0  0  0  0
    2.0976    5.7653    0.0000 C   0  0  0  0  0  0  0  0  0  0  0  0
    0.6976    5.7653    0.0000 C   0  0  0  0  0  0  0  0  0  0  0  0
    0.0000    6.9735    0.0000 C   0  0  0  0  0  0  0  0  0  0  0  0
    0.7174    3.0565    0.0000 O   0  0  0  0  0  0  0  0  0  0  0  0
    6.6037    0.0000    0.0000 N   0  0  0  0  0  0  0  0  0  0  0  0
    7.8161    0.7000    0.0000 C   0  0  0  0  0  0  0  0  0  0  0  0
    9.0285    0.0000    0.0000 C   0  0  0  0  0  0  0  0  0  0  0  0
   10.2410    0.7000    0.0000 C   0  0  0  0  0  0  0  0  0  0  0  0
   10.2410    2.1000    0.0000 C   0  0  0  0  0  0  0  0  0  0  0  0
    9.0285    2.8000    0.0000 C   0  0  0  0  0  0  0  0  0  0  0  0
    7.8161    2.1000    0.0000 C   0  0  0  0  0  0  0  0  0  0  0  0
   11.4492    2.7976    0.0000 N   0  0  0  0  0  0  0  0  0  0  0  0
   12.6616    2.0976    0.0000 C   0  0  0  0  0  0  0  0  0  0  0  0
   13.8741    2.7976    0.0000 C   0  0  0  0  0  0  0  0  0  0  0  0
   13.8741    4.1976    0.0000 N   0  0  0  0  0  0  0  0  0  0  0  0
   12.6616    4.8976    0.0000 C   0  0  0  0  0  0  0  0  0  0  0  0
   11.4492    4.1976    0.0000 C   0  0  0  0  0  0  0  0  0  0  0  0
   15.0823    4.8951    0.0000 C   0  0  0  0  0  0  0  0  0  0  0  0
  1  2  2  0  0  0  0
  2  3  1  0  0  0  0
  3  4  2  0  0  0  0
  4  5  1  0  0  0  0
  5  6  2  0  0  0  0
  6  1  1  0  0  0  0
  5  7  1  0  0  0  0
  7  8  1  0  0  0  0
  7  9  1  0  0  0  0
  7 10  1  0  0  0  0
  3 11  1  0  0  0  0
 11 12  1  0  0  0  0
 12 13  1  0  0  0  0
 13 14  1  0  0  0  0
 14 15  2  0  0  0  0
 15 11  1  0  0  0  0
 14 16  1  0  0  0  0
 16 17  2  0  0  0  0
 17 18  1  0  0  0  0
 18 19  2  0  0  0  0
 19 15  1  0  0  0  0
 12 20  1  0  0  0  0
 20 21  1  0  0  0  0
 21 22  2  0  0  0  0
 13 23  2  0  0  0  0
 18 24  1  0  0  0  0
 24 25  1  0  0  0  0
 25 26  2  0  0  0  0
 26 27  1  0  0  0  0
 27 28  2  0  0  0  0
 28 29  1  0  0  0  0
 29 30  2  0  0  0  0
 30 25  1  0  0  0  0
 28 31  1  0  0  0  0
 31 32  1  0  0  0  0
 32 33  1  0  0  0  0
 33 34  1  0  0  0  0
 34 35  1  0  0  0  0
 35 36  1  0  0  0  0
 36 31  1  0  0  0  0
 34 37  1  0  0  0  0
M  END
>  <Mol_ID> (103)
320

>  <Formula> (103)
C27H32N8O2

>  <MolWeight> (103)
500.59538

>  <Cat> (103)
S1525

>  <Name> (103)
MK-1775

>  <Synonyms> (103)
N/A 

>  <Target> (103)
Wee1

>  <Form> (103)
Free Base

>  <CAS> (103)
955365-80-7

>  <URL> (103)
http://www.selleckchem.com/products/MK-1775.html

$$$$
AC220.cdx
csChFnd80/05071909292D

 40 45  0  0  0  0  0  0  0  0999 V2000
    8.3036    2.1000    0.0000 C   0  0  0  0  0  0  0  0  0  0  0  0
    8.3036    0.7000    0.0000 C   0  0  0  0  0  0  0  0  0  0  0  0
    9.5160    0.0000    0.0000 C   0  0  0  0  0  0  0  0  0  0  0  0
   10.7285    0.7000    0.0000 C   0  0  0  0  0  0  0  0  0  0  0  0
   10.7285    2.1000    0.0000 C   0  0  0  0  0  0  0  0  0  0  0  0
    9.5160    2.8000    0.0000 C   0  0  0  0  0  0  0  0  0  0  0  0
    7.0954    0.0024    0.0000 N   0  0  0  0  0  0  0  0  0  0  0  0
    5.8872    0.7000    0.0000 C   0  0  0  0  0  0  0  0  0  0  0  0
    4.6789    0.0024    0.0000 N   0  0  0  0  0  0  0  0  0  0  0  0
    5.8872    2.0951    0.0000 O   0  0  0  0  0  0  0  0  0  0  0  0
    3.4707    0.7000    0.0000 C   0  0  0  0  0  0  0  0  0  0  0  0
    3.3244    2.0923    0.0000 C   0  0  0  0  0  0  0  0  0  0  0  0
    1.9550    2.3834    0.0000 C   0  0  0  0  0  0  0  0  0  0  0  0
    1.2550    1.1710    0.0000 O   0  0  0  0  0  0  0  0  0  0  0  0
    2.1917    0.1306    0.0000 N   0  0  0  0  0  0  0  0  0  0  0  0
    1.3875    3.6579    0.0000 C   0  0  0  0  0  0  0  0  0  0  0  0
    2.2075    4.7866    0.0000 C   0  0  0  0  0  0  0  0  0  0  0  0
    0.0000    3.8038    0.0000 C   0  0  0  0  0  0  0  0  0  0  0  0
    0.6875    4.8704    0.0000 C   0  0  0  0  0  0  0  0  0  0  0  0
   11.9367    2.7976    0.0000 C   0  0  0  0  0  0  0  0  0  0  0  0
   13.2157    2.2281    0.0000 N   0  0  0  0  0  0  0  0  0  0  0  0
   14.1525    3.2685    0.0000 C   0  0  0  0  0  0  0  0  0  0  0  0
   13.4525    4.4810    0.0000 N   0  0  0  0  0  0  0  0  0  0  0  0
   12.0830    4.1899    0.0000 C   0  0  0  0  0  0  0  0  0  0  0  0
   15.5219    3.5596    0.0000 S   0  0  0  0  0  0  0  0  0  0  0  0
   15.6682    4.9520    0.0000 C   0  0  0  0  0  0  0  0  0  0  0  0
   14.3892    5.5214    0.0000 C   0  0  0  0  0  0  0  0  0  0  0  0
   16.6581    5.9419    0.0000 C   0  0  0  0  0  0  0  0  0  0  0  0
   16.2958    7.2942    0.0000 C   0  0  0  0  0  0  0  0  0  0  0  0
   14.9435    7.6565    0.0000 C   0  0  0  0  0  0  0  0  0  0  0  0
   13.9536    6.6666    0.0000 C   0  0  0  0  0  0  0  0  0  0  0  0
   17.2823    8.2807    0.0000 O   0  0  0  0  0  0  0  0  0  0  0  0
   18.6299    7.9196    0.0000 C   0  0  0  0  0  0  0  0  0  0  0  0
   18.9923    6.5673    0.0000 C   0  0  0  0  0  0  0  0  0  0  0  0
   20.3446    6.2050    0.0000 N   0  0  0  0  0  0  0  0  0  0  0  0
   20.7069    4.8527    0.0000 C   0  0  0  0  0  0  0  0  0  0  0  0
   22.0592    4.4903    0.0000 C   0  0  0  0  0  0  0  0  0  0  0  0
   23.0492    5.4803    0.0000 O   0  0  0  0  0  0  0  0  0  0  0  0
   22.6868    6.8326    0.0000 C   0  0  0  0  0  0  0  0  0  0  0  0
   21.3345    7.1949    0.0000 C   0  0  0  0  0  0  0  0  0  0  0  0
  1  2  2  0  0  0  0
  2  3  1  0  0  0  0
  3  4  2  0  0  0  0
  4  5  1  0  0  0  0
  5  6  2  0  0  0  0
  6  1  1  0  0  0  0
  2  7  1  0  0  0  0
  7  8  1  0  0  0  0
  8  9  1  0  0  0  0
  8 10  2  0  0  0  0
  9 11  1  0  0  0  0
 11 12  1  0  0  0  0
 12 13  2  0  0  0  0
 13 14  1  0  0  0  0
 14 15  1  0  0  0  0
 15 11  2  0  0  0  0
 13 16  1  0  0  0  0
 16 17  1  0  0  0  0
 16 18  1  0  0  0  0
 16 19  1  0  0  0  0
  5 20  1  0  0  0  0
 20 21  1  0  0  0  0
 21 22  2  0  0  0  0
 22 23  1  0  0  0  0
 23 24  1  0  0  0  0
 24 20  2  0  0  0  0
 22 25  1  0  0  0  0
 25 26  1  0  0  0  0
 26 27  1  0  0  0  0
 27 23  1  0  0  0  0
 26 28  2  0  0  0  0
 28 29  1  0  0  0  0
 29 30  2  0  0  0  0
 30 31  1  0  0  0  0
 31 27  2  0  0  0  0
 29 32  1  0  0  0  0
 32 33  1  0  0  0  0
 33 34  1  0  0  0  0
 34 35  1  0  0  0  0
 35 36  1  0  0  0  0
 36 37  1  0  0  0  0
 37 38  1  0  0  0  0
 38 39  1  0  0  0  0
 39 40  1  0  0  0  0
 40 35  1  0  0  0  0
M  END
>  <Mol_ID> (104)
321

>  <Formula> (104)
C29H32N6O4S

>  <MolWeight> (104)
560.66718

>  <Cat> (104)
S1526

>  <Name> (104)
Quizartinib (AC220)

>  <Synonyms> (104)
N/A 

>  <Target> (104)
Flt

>  <Form> (104)
Free Base

>  <CAS> (104)
950769-58-1

>  <URL> (104)
http://www.selleckchem.com/products/AC-220.html

$$$$
Hesperadin .cdx
csChFnd80/05071909292D

 37 41  0  0  0  0  0  0  0  0999 V2000
    3.6331    2.1024    0.0000 C   0  0  0  0  0  0  0  0  0  0  0  0
    3.6331    0.7024    0.0000 C   0  0  0  0  0  0  0  0  0  0  0  0
    4.8455    0.0024    0.0000 C   0  0  0  0  0  0  0  0  0  0  0  0
    6.0580    0.7024    0.0000 C   0  0  0  0  0  0  0  0  0  0  0  0
    6.0580    2.1024    0.0000 C   0  0  0  0  0  0  0  0  0  0  0  0
    4.8455    2.8024    0.0000 C   0  0  0  0  0  0  0  0  0  0  0  0
    7.3894    0.2698    0.0000 N   0  0  0  0  0  0  0  0  0  0  0  0
    8.2123    1.4024    0.0000 C   0  0  0  0  0  0  0  0  0  0  0  0
    7.3894    2.5351    0.0000 C   0  0  0  0  0  0  0  0  0  0  0  0
    9.6075    1.4024    0.0000 O   0  0  0  0  0  0  0  0  0  0  0  0
    2.4249    2.8000    0.0000 N   0  0  0  0  0  0  0  0  0  0  0  0
    1.2124    2.1000    0.0000 S   0  0  0  0  0  0  0  0  0  0  0  0
    0.0000    1.4000    0.0000 C   0  0  0  0  0  0  0  0  0  0  0  0
    0.0000    0.0000    0.0000 C   0  0  0  0  0  0  0  0  0  0  0  0
    0.5124    3.3124    0.0000 O   0  0  0  0  0  0  0  0  0  0  0  0
    1.9124    0.8876    0.0000 O   0  0  0  0  0  0  0  0  0  0  0  0
    7.7518    3.8874    0.0000 C   0  0  0  0  0  0  0  0  0  0  0  0
    6.7653    4.8739    0.0000 C   0  0  0  0  0  0  0  0  0  0  0  0
    9.0994    4.2484    0.0000 N   0  0  0  0  0  0  0  0  0  0  0  0
    7.1276    6.2262    0.0000 C   0  0  0  0  0  0  0  0  0  0  0  0
    6.1377    7.2161    0.0000 C   0  0  0  0  0  0  0  0  0  0  0  0
    4.7854    6.8538    0.0000 C   0  0  0  0  0  0  0  0  0  0  0  0
    4.4230    5.5015    0.0000 C   0  0  0  0  0  0  0  0  0  0  0  0
    5.4130    4.5115    0.0000 C   0  0  0  0  0  0  0  0  0  0  0  0
    9.4617    5.6007    0.0000 C   0  0  0  0  0  0  0  0  0  0  0  0
   10.8140    5.9631    0.0000 C   0  0  0  0  0  0  0  0  0  0  0  0
   11.1764    7.3154    0.0000 C   0  0  0  0  0  0  0  0  0  0  0  0
   10.1864    8.3053    0.0000 C   0  0  0  0  0  0  0  0  0  0  0  0
    8.8341    7.9430    0.0000 C   0  0  0  0  0  0  0  0  0  0  0  0
    8.4718    6.5907    0.0000 C   0  0  0  0  0  0  0  0  0  0  0  0
   10.5475    9.6529    0.0000 C   0  0  0  0  0  0  0  0  0  0  0  0
    9.5576   10.6429    0.0000 N   0  0  0  0  0  0  0  0  0  0  0  0
    9.9199   11.9952    0.0000 C   0  0  0  0  0  0  0  0  0  0  0  0
    8.9300   12.9851    0.0000 C   0  0  0  0  0  0  0  0  0  0  0  0
    7.5777   12.6228    0.0000 C   0  0  0  0  0  0  0  0  0  0  0  0
    7.2153   11.2705    0.0000 C   0  0  0  0  0  0  0  0  0  0  0  0
    8.2053   10.2805    0.0000 C   0  0  0  0  0  0  0  0  0  0  0  0
  1  2  2  0  0  0  0
  2  3  1  0  0  0  0
  3  4  2  0  0  0  0
  4  5  1  0  0  0  0
  5  6  2  0  0  0  0
  6  1  1  0  0  0  0
  4  7  1  0  0  0  0
  7  8  1  0  0  0  0
  8  9  1  0  0  0  0
  9  5  1  0  0  0  0
  8 10  2  0  0  0  0
  1 11  1  0  0  0  0
 11 12  1  0  0  0  0
 12 13  1  0  0  0  0
 13 14  1  0  0  0  0
 12 15  2  0  0  0  0
 12 16  2  0  0  0  0
  9 17  2  0  0  0  0
 17 18  1  0  0  0  0
 17 19  1  0  0  0  0
 18 20  2  0  0  0  0
 20 21  1  0  0  0  0
 21 22  2  0  0  0  0
 22 23  1  0  0  0  0
 23 24  2  0  0  0  0
 24 18  1  0  0  0  0
 19 25  1  0  0  0  0
 25 26  2  0  0  0  0
 26 27  1  0  0  0  0
 27 28  2  0  0  0  0
 28 29  1  0  0  0  0
 29 30  2  0  0  0  0
 30 25  1  0  0  0  0
 28 31  1  0  0  0  0
 31 32  1  0  0  0  0
 32 33  1  0  0  0  0
 33 34  1  0  0  0  0
 34 35  1  0  0  0  0
 35 36  1  0  0  0  0
 36 37  1  0  0  0  0
 37 32  1  0  0  0  0
M  END
>  <Mol_ID> (105)
324

>  <Formula> (105)
C29H32N4O3S

>  <MolWeight> (105)
516.65438

>  <Cat> (105)
S1529

>  <Name> (105)
Hesperadin

>  <Synonyms> (105)
N/A

>  <Target> (105)
Aurora Kinase

>  <Form> (105)
Free Base

>  <CAS> (105)
422513-13-1

>  <URL> (105)
http://www.selleckchem.com/products/Hesperadin.html

$$$$
BIX02188.cdx
csChFnd80/05071909292D

 32 35  0  0  0  0  0  0  0  0999 V2000
    3.6247    3.4927    0.0000 C   0  0  0  0  0  0  0  0  0  0  0  0
    3.6247    2.0927    0.0000 C   0  0  0  0  0  0  0  0  0  0  0  0
    4.8371    1.3927    0.0000 C   0  0  0  0  0  0  0  0  0  0  0  0
    6.0496    2.0927    0.0000 C   0  0  0  0  0  0  0  0  0  0  0  0
    6.0496    3.4927    0.0000 C   0  0  0  0  0  0  0  0  0  0  0  0
    4.8371    4.1927    0.0000 C   0  0  0  0  0  0  0  0  0  0  0  0
    7.3810    1.6601    0.0000 N   0  0  0  0  0  0  0  0  0  0  0  0
    8.2039    2.7927    0.0000 C   0  0  0  0  0  0  0  0  0  0  0  0
    7.3810    3.9253    0.0000 C   0  0  0  0  0  0  0  0  0  0  0  0
    2.4165    1.3951    0.0000 C   0  0  0  0  0  0  0  0  0  0  0  0
    1.2082    2.0927    0.0000 N   0  0  0  0  0  0  0  0  0  0  0  0
    2.4165    0.0000    0.0000 O   0  0  0  0  0  0  0  0  0  0  0  0
    9.5991    2.7927    0.0000 O   0  0  0  0  0  0  0  0  0  0  0  0
    7.8122    5.2522    0.0000 C   0  0  0  0  0  0  0  0  0  0  0  0
    9.1768    5.5423    0.0000 N   0  0  0  0  0  0  0  0  0  0  0  0
    6.8786    6.2890    0.0000 C   0  0  0  0  0  0  0  0  0  0  0  0
    7.3112    7.6205    0.0000 C   0  0  0  0  0  0  0  0  0  0  0  0
    6.3745    8.6609    0.0000 C   0  0  0  0  0  0  0  0  0  0  0  0
    5.0051    8.3698    0.0000 C   0  0  0  0  0  0  0  0  0  0  0  0
    4.5724    7.0383    0.0000 C   0  0  0  0  0  0  0  0  0  0  0  0
    5.5092    5.9979    0.0000 C   0  0  0  0  0  0  0  0  0  0  0  0
   10.5291    5.9046    0.0000 C   0  0  0  0  0  0  0  0  0  0  0  0
   11.7415    5.2046    0.0000 C   0  0  0  0  0  0  0  0  0  0  0  0
   12.9540    5.9046    0.0000 C   0  0  0  0  0  0  0  0  0  0  0  0
   12.9540    7.3046    0.0000 C   0  0  0  0  0  0  0  0  0  0  0  0
   11.7415    8.0046    0.0000 C   0  0  0  0  0  0  0  0  0  0  0  0
   10.5291    7.3046    0.0000 C   0  0  0  0  0  0  0  0  0  0  0  0
   14.1622    5.2070    0.0000 C   0  0  0  0  0  0  0  0  0  0  0  0
   15.3746    5.9070    0.0000 N   0  0  0  0  0  0  0  0  0  0  0  0
   15.3746    7.3022    0.0000 C   0  0  0  0  0  0  0  0  0  0  0  0
   16.5829    5.2095    0.0000 C   0  0  0  0  0  0  0  0  0  0  0  0
    0.0000    1.3951    0.0000 C   0  0  0  0  0  0  0  0  0  0  0  0
  1  2  2  0  0  0  0
  2  3  1  0  0  0  0
  3  4  2  0  0  0  0
  4  5  1  0  0  0  0
  5  6  2  0  0  0  0
  6  1  1  0  0  0  0
  4  7  1  0  0  0  0
  7  8  1  0  0  0  0
  8  9  1  0  0  0  0
  9  5  1  0  0  0  0
  2 10  1  0  0  0  0
 10 11  1  0  0  0  0
 10 12  2  0  0  0  0
  8 13  2  0  0  0  0
  9 14  2  0  0  0  0
 14 15  1  0  0  0  0
 14 16  1  0  0  0  0
 16 17  2  0  0  0  0
 17 18  1  0  0  0  0
 18 19  2  0  0  0  0
 19 20  1  0  0  0  0
 20 21  2  0  0  0  0
 21 16  1  0  0  0  0
 15 22  1  0  0  0  0
 22 23  2  0  0  0  0
 23 24  1  0  0  0  0
 24 25  2  0  0  0  0
 25 26  1  0  0  0  0
 26 27  2  0  0  0  0
 27 22  1  0  0  0  0
 24 28  1  0  0  0  0
 28 29  1  0  0  0  0
 29 30  1  0  0  0  0
 29 31  1  0  0  0  0
 11 32  1  0  0  0  0
M  END
>  <Mol_ID> (106)
325

>  <Formula> (106)
C26H26N4O2

>  <MolWeight> (106)
426.51024

>  <Cat> (106)
S1530

>  <Name> (106)
BIX 02188

>  <Synonyms> (106)
N/A

>  <Target> (106)
MEK 

>  <Form> (106)
Free Base

>  <CAS> (106)
1094614-84-2

>  <URL> (106)
http://www.selleckchem.com/products/BIX-02188.html

$$$$
BIX02189.cdx
csChFnd80/05071909292D

 33 36  0  0  0  0  0  0  0  0999 V2000
    3.6247    3.4927    0.0000 C   0  0  0  0  0  0  0  0  0  0  0  0
    3.6247    2.0927    0.0000 C   0  0  0  0  0  0  0  0  0  0  0  0
    4.8371    1.3927    0.0000 C   0  0  0  0  0  0  0  0  0  0  0  0
    6.0496    2.0927    0.0000 C   0  0  0  0  0  0  0  0  0  0  0  0
    6.0496    3.4927    0.0000 C   0  0  0  0  0  0  0  0  0  0  0  0
    4.8371    4.1927    0.0000 C   0  0  0  0  0  0  0  0  0  0  0  0
    7.3810    1.6601    0.0000 N   0  0  0  0  0  0  0  0  0  0  0  0
    8.2039    2.7927    0.0000 C   0  0  0  0  0  0  0  0  0  0  0  0
    7.3810    3.9253    0.0000 C   0  0  0  0  0  0  0  0  0  0  0  0
    2.4165    1.3951    0.0000 C   0  0  0  0  0  0  0  0  0  0  0  0
    1.2082    2.0927    0.0000 N   0  0  0  0  0  0  0  0  0  0  0  0
    2.4165    0.0000    0.0000 O   0  0  0  0  0  0  0  0  0  0  0  0
    9.5991    2.7927    0.0000 O   0  0  0  0  0  0  0  0  0  0  0  0
    7.8122    5.2522    0.0000 C   0  0  0  0  0  0  0  0  0  0  0  0
    9.1768    5.5423    0.0000 N   0  0  0  0  0  0  0  0  0  0  0  0
    6.8786    6.2890    0.0000 C   0  0  0  0  0  0  0  0  0  0  0  0
    7.3112    7.6205    0.0000 C   0  0  0  0  0  0  0  0  0  0  0  0
    6.3745    8.6609    0.0000 C   0  0  0  0  0  0  0  0  0  0  0  0
    5.0051    8.3698    0.0000 C   0  0  0  0  0  0  0  0  0  0  0  0
    4.5724    7.0383    0.0000 C   0  0  0  0  0  0  0  0  0  0  0  0
    5.5092    5.9979    0.0000 C   0  0  0  0  0  0  0  0  0  0  0  0
   10.5291    5.9046    0.0000 C   0  0  0  0  0  0  0  0  0  0  0  0
   11.7415    5.2046    0.0000 C   0  0  0  0  0  0  0  0  0  0  0  0
   12.9540    5.9046    0.0000 C   0  0  0  0  0  0  0  0  0  0  0  0
   12.9540    7.3046    0.0000 C   0  0  0  0  0  0  0  0  0  0  0  0
   11.7415    8.0046    0.0000 C   0  0  0  0  0  0  0  0  0  0  0  0
   10.5291    7.3046    0.0000 C   0  0  0  0  0  0  0  0  0  0  0  0
   14.1622    5.2070    0.0000 C   0  0  0  0  0  0  0  0  0  0  0  0
   15.3746    5.9070    0.0000 N   0  0  0  0  0  0  0  0  0  0  0  0
   15.3746    7.3022    0.0000 C   0  0  0  0  0  0  0  0  0  0  0  0
   16.5829    5.2095    0.0000 C   0  0  0  0  0  0  0  0  0  0  0  0
    1.2082    3.4878    0.0000 C   0  0  0  0  0  0  0  0  0  0  0  0
    0.0000    1.3951    0.0000 C   0  0  0  0  0  0  0  0  0  0  0  0
  1  2  2  0  0  0  0
  2  3  1  0  0  0  0
  3  4  2  0  0  0  0
  4  5  1  0  0  0  0
  5  6  2  0  0  0  0
  6  1  1  0  0  0  0
  4  7  1  0  0  0  0
  7  8  1  0  0  0  0
  8  9  1  0  0  0  0
  9  5  1  0  0  0  0
  2 10  1  0  0  0  0
 10 11  1  0  0  0  0
 10 12  2  0  0  0  0
  8 13  2  0  0  0  0
  9 14  2  0  0  0  0
 14 15  1  0  0  0  0
 14 16  1  0  0  0  0
 16 17  2  0  0  0  0
 17 18  1  0  0  0  0
 18 19  2  0  0  0  0
 19 20  1  0  0  0  0
 20 21  2  0  0  0  0
 21 16  1  0  0  0  0
 15 22  1  0  0  0  0
 22 23  2  0  0  0  0
 23 24  1  0  0  0  0
 24 25  2  0  0  0  0
 25 26  1  0  0  0  0
 26 27  2  0  0  0  0
 27 22  1  0  0  0  0
 24 28  1  0  0  0  0
 28 29  1  0  0  0  0
 29 30  1  0  0  0  0
 29 31  1  0  0  0  0
 11 32  1  0  0  0  0
 11 33  1  0  0  0  0
M  END
>  <Mol_ID> (107)
326

>  <Formula> (107)
C27H28N4O2

>  <MolWeight> (107)
440.53682

>  <Cat> (107)
S1531

>  <Name> (107)
BIX 02189

>  <Synonyms> (107)
N/A

>  <Target> (107)
MEK 

>  <Form> (107)
Free Base

>  <CAS> (107)
1094614-85-3

>  <URL> (107)
http://www.selleckchem.com/products/BIX-02189.html

$$$$
AZD7762.cdx
csChFnd80/05071909292D

 25 27  0  0  0  0  0  0  0  0999 V2000
    1.2082    2.1000    0.0000 C   0  0  0  0  0  0  0  0  0  0  0  0
    1.2082    0.7000    0.0000 C   0  0  0  0  0  0  0  0  0  0  0  0
    2.4207    0.0000    0.0000 C   0  0  0  0  0  0  0  0  0  0  0  0
    3.6331    0.7000    0.0000 C   0  0  0  0  0  0  0  0  0  0  0  0
    3.6331    2.1000    0.0000 C   0  0  0  0  0  0  0  0  0  0  0  0
    2.4207    2.8000    0.0000 C   0  0  0  0  0  0  0  0  0  0  0  0
    0.0000    2.7976    0.0000 F   0  0  0  0  0  0  0  0  0  0  0  0
    4.8413    2.7976    0.0000 C   0  0  0  0  0  0  0  0  0  0  0  0
    6.1203    2.2281    0.0000 S   0  0  0  0  0  0  0  0  0  0  0  0
    7.0571    3.2685    0.0000 C   0  0  0  0  0  0  0  0  0  0  0  0
    6.3571    4.4810    0.0000 C   0  0  0  0  0  0  0  0  0  0  0  0
    4.9877    4.1899    0.0000 C   0  0  0  0  0  0  0  0  0  0  0  0
    6.9245    5.7555    0.0000 N   0  0  0  0  0  0  0  0  0  0  0  0
    6.2245    6.9679    0.0000 C   0  0  0  0  0  0  0  0  0  0  0  0
    6.9221    8.1762    0.0000 N   0  0  0  0  0  0  0  0  0  0  0  0
    4.8294    6.9679    0.0000 O   0  0  0  0  0  0  0  0  0  0  0  0
    8.4446    3.1227    0.0000 C   0  0  0  0  0  0  0  0  0  0  0  0
    9.2646    4.2514    0.0000 N   0  0  0  0  0  0  0  0  0  0  0  0
    9.0120    1.8482    0.0000 O   0  0  0  0  0  0  0  0  0  0  0  0
   10.6521    4.1056    0.0000 C   0  0  2  0  0  0  0  0  0  0  0  0
   11.1792    2.8086    0.0000 C   0  0  0  0  0  0  0  0  0  0  0  0
   12.5660    2.6166    0.0000 N   0  0  0  0  0  0  0  0  0  0  0  0
   13.4257    3.7216    0.0000 C   0  0  0  0  0  0  0  0  0  0  0  0
   12.8985    5.0186    0.0000 C   0  0  0  0  0  0  0  0  0  0  0  0
   11.5118    5.2106    0.0000 C   0  0  0  0  0  0  0  0  0  0  0  0
  1  2  2  0  0  0  0
  2  3  1  0  0  0  0
  3  4  2  0  0  0  0
  4  5  1  0  0  0  0
  5  6  2  0  0  0  0
  6  1  1  0  0  0  0
  1  7  1  0  0  0  0
  5  8  1  0  0  0  0
  8  9  1  0  0  0  0
  9 10  1  0  0  0  0
 10 11  2  0  0  0  0
 11 12  1  0  0  0  0
 12  8  2  0  0  0  0
 11 13  1  0  0  0  0
 13 14  1  0  0  0  0
 14 15  1  0  0  0  0
 14 16  2  0  0  0  0
 10 17  1  0  0  0  0
 17 18  1  0  0  0  0
 17 19  2  0  0  0  0
 20 21  1  0  0  0  0
 21 22  1  0  0  0  0
 22 23  1  0  0  0  0
 23 24  1  0  0  0  0
 24 25  1  0  0  0  0
 25 20  1  0  0  0  0
 20 18  1  1  0  0  0
M  END
>  <Mol_ID> (108)
330

>  <Formula> (108)
C17H19FN4O2S

>  <MolWeight> (108)
362.4217632

>  <Cat> (108)
S1532

>  <Name> (108)
AZD7762

>  <Synonyms> (108)
N/A

>  <Target> (108)
Chk

>  <Form> (108)
Free Base

>  <CAS> (108)
860352-01-8

>  <URL> (108)
http://www.selleckchem.com/products/AZD7762.html

$$$$
R406 free base.cdx
csChFnd80/05071909292D

 34 37  0  0  0  0  0  0  0  0999 V2000
    2.4207    2.1000    0.0000 C   0  0  0  0  0  0  0  0  0  0  0  0
    2.4207    0.7000    0.0000 C   0  0  0  0  0  0  0  0  0  0  0  0
    3.6331    0.0000    0.0000 C   0  0  0  0  0  0  0  0  0  0  0  0
    4.8455    0.7000    0.0000 C   0  0  0  0  0  0  0  0  0  0  0  0
    4.8455    2.1000    0.0000 C   0  0  0  0  0  0  0  0  0  0  0  0
    3.6331    2.8000    0.0000 C   0  0  0  0  0  0  0  0  0  0  0  0
    1.2124    2.7976    0.0000 O   0  0  0  0  0  0  0  0  0  0  0  0
    0.0000    2.0976    0.0000 C   0  0  0  0  0  0  0  0  0  0  0  0
    1.2124    0.0024    0.0000 O   0  0  0  0  0  0  0  0  0  0  0  0
    0.0000    0.7024    0.0000 C   0  0  0  0  0  0  0  0  0  0  0  0
    3.6331    4.1951    0.0000 O   0  0  0  0  0  0  0  0  0  0  0  0
    4.8413    4.8927    0.0000 C   0  0  0  0  0  0  0  0  0  0  0  0
    6.0538    0.0024    0.0000 N   0  0  0  0  0  0  0  0  0  0  0  0
    7.2620    0.7000    0.0000 C   0  0  0  0  0  0  0  0  0  0  0  0
    8.4744    0.0000    0.0000 N   0  0  0  0  0  0  0  0  0  0  0  0
    9.6869    0.7000    0.0000 C   0  0  0  0  0  0  0  0  0  0  0  0
    9.6869    2.1000    0.0000 C   0  0  0  0  0  0  0  0  0  0  0  0
    8.4744    2.8000    0.0000 C   0  0  0  0  0  0  0  0  0  0  0  0
    7.2620    2.1000    0.0000 N   0  0  0  0  0  0  0  0  0  0  0  0
   10.8951    2.7976    0.0000 F   0  0  0  0  0  0  0  0  0  0  0  0
   10.8951    0.0024    0.0000 N   0  0  0  0  0  0  0  0  0  0  0  0
   12.1075    0.7024    0.0000 C   0  0  0  0  0  0  0  0  0  0  0  0
   13.3200    0.0024    0.0000 N   0  0  0  0  0  0  0  0  0  0  0  0
   14.5324    0.7024    0.0000 C   0  0  0  0  0  0  0  0  0  0  0  0
   14.5324    2.1024    0.0000 C   0  0  0  0  0  0  0  0  0  0  0  0
   13.3200    2.8024    0.0000 C   0  0  0  0  0  0  0  0  0  0  0  0
   12.1075    2.1024    0.0000 C   0  0  0  0  0  0  0  0  0  0  0  0
   15.7448    0.0024    0.0000 N   0  0  0  0  0  0  0  0  0  0  0  0
   16.9573    0.7024    0.0000 C   0  0  0  0  0  0  0  0  0  0  0  0
   16.9573    2.1024    0.0000 C   0  0  0  0  0  0  0  0  0  0  0  0
   15.7448    2.8024    0.0000 O   0  0  0  0  0  0  0  0  0  0  0  0
   18.1655    2.8000    0.0000 C   0  0  0  0  0  0  0  0  0  0  0  0
   17.3196    3.4547    0.0000 C   0  0  0  0  0  0  0  0  0  0  0  0
   18.1655    0.0049    0.0000 O   0  0  0  0  0  0  0  0  0  0  0  0
  1  2  2  0  0  0  0
  2  3  1  0  0  0  0
  3  4  2  0  0  0  0
  4  5  1  0  0  0  0
  5  6  2  0  0  0  0
  6  1  1  0  0  0  0
  1  7  1  0  0  0  0
  7  8  1  0  0  0  0
  2  9  1  0  0  0  0
  9 10  1  0  0  0  0
  6 11  1  0  0  0  0
 11 12  1  0  0  0  0
  4 13  1  0  0  0  0
 13 14  1  0  0  0  0
 14 15  2  0  0  0  0
 15 16  1  0  0  0  0
 16 17  2  0  0  0  0
 17 18  1  0  0  0  0
 18 19  2  0  0  0  0
 19 14  1  0  0  0  0
 17 20  1  0  0  0  0
 16 21  1  0  0  0  0
 21 22  1  0  0  0  0
 22 23  2  0  0  0  0
 23 24  1  0  0  0  0
 24 25  2  0  0  0  0
 25 26  1  0  0  0  0
 26 27  2  0  0  0  0
 27 22  1  0  0  0  0
 24 28  1  0  0  0  0
 28 29  1  0  0  0  0
 29 30  1  0  0  0  0
 30 31  1  0  0  0  0
 31 25  1  0  0  0  0
 30 32  1  0  0  0  0
 30 33  1  0  0  0  0
 29 34  2  0  0  0  0
M  END
>  <Mol_ID> (109)
331

>  <Formula> (109)
C22H23FN6O5

>  <MolWeight> (109)
470.4536232

>  <Cat> (109)
S1533

>  <Name> (109)
R406(free base)

>  <Synonyms> (109)
N/A

>  <Target> (109)
Syk 

>  <Form> (109)
Free Base

>  <CAS> (109)
841290-80-0

>  <URL> (109)
http://www.selleckchem.com/products/R406(free-base).html

$$$$
AZD 8055.cdx
csChFnd80/05071909292D

 34 38  0  0  0  0  0  0  0  0999 V2000
    2.4207    2.1000    0.0000 C   0  0  0  0  0  0  0  0  0  0  0  0
    2.4207    0.7000    0.0000 C   0  0  0  0  0  0  0  0  0  0  0  0
    3.6331    0.0000    0.0000 C   0  0  0  0  0  0  0  0  0  0  0  0
    4.8455    0.7000    0.0000 C   0  0  0  0  0  0  0  0  0  0  0  0
    4.8455    2.1000    0.0000 C   0  0  0  0  0  0  0  0  0  0  0  0
    3.6331    2.8000    0.0000 C   0  0  0  0  0  0  0  0  0  0  0  0
    1.2124    2.7976    0.0000 C   0  0  0  0  0  0  0  0  0  0  0  0
    0.0000    2.0976    0.0000 O   0  0  0  0  0  0  0  0  0  0  0  0
    1.2124    0.0024    0.0000 O   0  0  0  0  0  0  0  0  0  0  0  0
    0.0042    0.7000    0.0000 C   0  0  0  0  0  0  0  0  0  0  0  0
    6.0538    2.7976    0.0000 C   0  0  0  0  0  0  0  0  0  0  0  0
    7.2662    2.0976    0.0000 N   0  0  0  0  0  0  0  0  0  0  0  0
    8.4786    2.7976    0.0000 C   0  0  0  0  0  0  0  0  0  0  0  0
    8.4786    4.1976    0.0000 C   0  0  0  0  0  0  0  0  0  0  0  0
    7.2662    4.8976    0.0000 C   0  0  0  0  0  0  0  0  0  0  0  0
    6.0538    4.1976    0.0000 C   0  0  0  0  0  0  0  0  0  0  0  0
    9.6911    2.0976    0.0000 N   0  0  0  0  0  0  0  0  0  0  0  0
   10.9035    2.7976    0.0000 C   0  0  0  0  0  0  0  0  0  0  0  0
   10.9035    4.1976    0.0000 N   0  0  0  0  0  0  0  0  0  0  0  0
    9.6911    4.8976    0.0000 C   0  0  0  0  0  0  0  0  0  0  0  0
    9.6911    6.2927    0.0000 N   0  0  0  0  0  0  0  0  0  0  0  0
   10.9035    6.9927    0.0000 C   0  0  2  0  0  0  0  0  0  0  0  0
   10.9035    8.3927    0.0000 C   0  0  0  0  0  0  0  0  0  0  0  0
    9.6911    9.0927    0.0000 O   0  0  0  0  0  0  0  0  0  0  0  0
    8.4786    8.3927    0.0000 C   0  0  0  0  0  0  0  0  0  0  0  0
    8.4786    6.9927    0.0000 C   0  0  0  0  0  0  0  0  0  0  0  0
   12.1117    2.1000    0.0000 N   0  0  0  0  0  0  0  0  0  0  0  0
   12.1117    0.7000    0.0000 C   0  0  2  0  0  0  0  0  0  0  0  0
   13.3242    0.0000    0.0000 C   0  0  0  0  0  0  0  0  0  0  0  0
   14.5366    0.7000    0.0000 O   0  0  0  0  0  0  0  0  0  0  0  0
   14.5366    2.1000    0.0000 C   0  0  0  0  0  0  0  0  0  0  0  0
   13.3242    2.8000    0.0000 C   0  0  0  0  0  0  0  0  0  0  0  0
   10.9035    0.0024    0.0000 C   0  0  0  0  0  0  0  0  0  0  0  0
   12.1117    6.2951    0.0000 C   0  0  0  0  0  0  0  0  0  0  0  0
  1  2  2  0  0  0  0
  2  3  1  0  0  0  0
  3  4  2  0  0  0  0
  4  5  1  0  0  0  0
  5  6  2  0  0  0  0
  6  1  1  0  0  0  0
  1  7  1  0  0  0  0
  7  8  1  0  0  0  0
  2  9  1  0  0  0  0
  9 10  1  0  0  0  0
  5 11  1  0  0  0  0
 11 12  2  0  0  0  0
 12 13  1  0  0  0  0
 13 14  2  0  0  0  0
 14 15  1  0  0  0  0
 15 16  2  0  0  0  0
 16 11  1  0  0  0  0
 13 17  1  0  0  0  0
 17 18  2  0  0  0  0
 18 19  1  0  0  0  0
 19 20  2  0  0  0  0
 20 14  1  0  0  0  0
 20 21  1  0  0  0  0
 21 22  1  0  0  0  0
 22 23  1  0  0  0  0
 23 24  1  0  0  0  0
 24 25  1  0  0  0  0
 25 26  1  0  0  0  0
 26 21  1  0  0  0  0
 18 27  1  0  0  0  0
 27 28  1  0  0  0  0
 28 29  1  0  0  0  0
 29 30  1  0  0  0  0
 30 31  1  0  0  0  0
 31 32  1  0  0  0  0
 32 27  1  0  0  0  0
 28 33  1  6  0  0  0
 22 34  1  6  0  0  0
M  END
>  <Mol_ID> (110)
339

>  <Formula> (110)
C25H31N5O4

>  <MolWeight> (110)
465.54474

>  <Cat> (110)
S1555

>  <Name> (110)
AZD8055

>  <Synonyms> (110)
N/A 

>  <Target> (110)
mTOR

>  <Form> (110)
Free Base

>  <CAS> (110)
1009298-09-2

>  <URL> (110)
http://www.selleckchem.com/products/AZD8055.html

$$$$
PHT-427.cdx
csChFnd80/05071909292D

 27 28  0  0  0  0  0  0  0  0999 V2000
    7.4556    4.1184    0.0000 C   0  0  0  0  0  0  0  0  0  0  0  0
    6.7532    5.3350    0.0000 C   0  0  0  0  0  0  0  0  0  0  0  0
    5.3483    5.3350    0.0000 C   0  0  0  0  0  0  0  0  0  0  0  0
    4.6459    4.1184    0.0000 C   0  0  0  0  0  0  0  0  0  0  0  0
    5.3483    2.9017    0.0000 C   0  0  0  0  0  0  0  0  0  0  0  0
    6.7532    2.9017    0.0000 C   0  0  0  0  0  0  0  0  0  0  0  0
    4.6483    1.6893    0.0000 S   0  0  0  0  0  0  0  0  0  0  0  0
    3.9459    0.4726    0.0000 O   0  0  0  0  0  0  0  0  0  0  0  0
    3.4359    2.3893    0.0000 N   0  0  0  0  0  0  0  0  0  0  0  0
    5.8608    0.9893    0.0000 O   0  0  0  0  0  0  0  0  0  0  0  0
    2.2235    1.6893    0.0000 C   0  0  0  0  0  0  0  0  0  0  0  0
    0.9400    2.2607    0.0000 N   0  0  0  0  0  0  0  0  0  0  0  0
    0.0000    1.2167    0.0000 N   0  0  0  0  0  0  0  0  0  0  0  0
    0.7024    0.0000    0.0000 C   0  0  0  0  0  0  0  0  0  0  0  0
    2.0766    0.2921    0.0000 S   0  0  0  0  0  0  0  0  0  0  0  0
    7.4532    6.5475    0.0000 C   0  0  0  0  0  0  0  0  0  0  0  0
    8.8581    6.5475    0.0000 C   0  0  0  0  0  0  0  0  0  0  0  0
    9.5581    7.7599    0.0000 C   0  0  0  0  0  0  0  0  0  0  0  0
   10.9581    7.7599    0.0000 C   0  0  0  0  0  0  0  0  0  0  0  0
   11.6581    8.9723    0.0000 C   0  0  0  0  0  0  0  0  0  0  0  0
   13.0581    8.9723    0.0000 C   0  0  0  0  0  0  0  0  0  0  0  0
   13.7581   10.1848    0.0000 C   0  0  0  0  0  0  0  0  0  0  0  0
   15.1581   10.1848    0.0000 C   0  0  0  0  0  0  0  0  0  0  0  0
   15.8581   11.3972    0.0000 C   0  0  0  0  0  0  0  0  0  0  0  0
   17.2581   11.3972    0.0000 C   0  0  0  0  0  0  0  0  0  0  0  0
   17.9581   12.6096    0.0000 C   0  0  0  0  0  0  0  0  0  0  0  0
   19.3581   12.6096    0.0000 C   0  0  0  0  0  0  0  0  0  0  0  0
  1  2  2  0  0  0  0
  2  3  1  0  0  0  0
  3  4  2  0  0  0  0
  4  5  1  0  0  0  0
  5  6  2  0  0  0  0
  6  1  1  0  0  0  0
  5  7  1  0  0  0  0
  7  8  2  0  0  0  0
  7  9  1  0  0  0  0
  7 10  2  0  0  0  0
  9 11  1  0  0  0  0
 11 12  2  0  0  0  0
 12 13  1  0  0  0  0
 13 14  2  0  0  0  0
 14 15  1  0  0  0  0
 15 11  1  0  0  0  0
  2 16  1  0  0  0  0
 16 17  1  0  0  0  0
 17 18  1  0  0  0  0
 18 19  1  0  0  0  0
 19 20  1  0  0  0  0
 20 21  1  0  0  0  0
 21 22  1  0  0  0  0
 22 23  1  0  0  0  0
 23 24  1  0  0  0  0
 24 25  1  0  0  0  0
 25 26  1  0  0  0  0
 26 27  1  0  0  0  0
M  END
>  <Mol_ID> (111)
341

>  <Formula> (111)
C20H31N3O2S2

>  <MolWeight> (111)
409.60904

>  <Cat> (111)
S1556

>  <Name> (111)
PHT-427

>  <Synonyms> (111)
N/A 

>  <Target> (111)
Akt, PDK-1

>  <Form> (111)
Free Base

>  <CAS> (111)
1191951-57-1

>  <URL> (111)
http://www.selleckchem.com/products/PHT-427.html

$$$$
KRN633.cdx
csChFnd80/05071909292D

 29 31  0  0  0  0  0  0  0  0999 V2000
    2.4207    2.1000    0.0000 C   0  0  0  0  0  0  0  0  0  0  0  0
    2.4207    0.7000    0.0000 C   0  0  0  0  0  0  0  0  0  0  0  0
    3.6331    0.0000    0.0000 C   0  0  0  0  0  0  0  0  0  0  0  0
    4.8455    0.7000    0.0000 C   0  0  0  0  0  0  0  0  0  0  0  0
    4.8455    2.1000    0.0000 C   0  0  0  0  0  0  0  0  0  0  0  0
    3.6331    2.8000    0.0000 C   0  0  0  0  0  0  0  0  0  0  0  0
    6.0580    0.0000    0.0000 N   0  0  0  0  0  0  0  0  0  0  0  0
    7.2704    0.7000    0.0000 C   0  0  0  0  0  0  0  0  0  0  0  0
    7.2704    2.1000    0.0000 N   0  0  0  0  0  0  0  0  0  0  0  0
    6.0580    2.8000    0.0000 C   0  0  0  0  0  0  0  0  0  0  0  0
    1.2124    2.7976    0.0000 O   0  0  0  0  0  0  0  0  0  0  0  0
    0.0000    2.0976    0.0000 C   0  0  0  0  0  0  0  0  0  0  0  0
    1.2124    0.0024    0.0000 O   0  0  0  0  0  0  0  0  0  0  0  0
    0.0000    0.7024    0.0000 C   0  0  0  0  0  0  0  0  0  0  0  0
    6.0580    4.1951    0.0000 O   0  0  0  0  0  0  0  0  0  0  0  0
    7.2704    4.8951    0.0000 C   0  0  0  0  0  0  0  0  0  0  0  0
    8.4828    4.1951    0.0000 C   0  0  0  0  0  0  0  0  0  0  0  0
    9.6953    4.8951    0.0000 C   0  0  0  0  0  0  0  0  0  0  0  0
    9.6953    6.2951    0.0000 C   0  0  0  0  0  0  0  0  0  0  0  0
    8.4828    6.9951    0.0000 C   0  0  0  0  0  0  0  0  0  0  0  0
    7.2704    6.2951    0.0000 C   0  0  0  0  0  0  0  0  0  0  0  0
    8.4828    8.3903    0.0000 Cl  0  0  0  0  0  0  0  0  0  0  0  0
   10.9035    6.9927    0.0000 N   0  0  0  0  0  0  0  0  0  0  0  0
   12.1159    6.2927    0.0000 C   0  0  0  0  0  0  0  0  0  0  0  0
   12.1159    4.8976    0.0000 O   0  0  0  0  0  0  0  0  0  0  0  0
   13.3242    6.9903    0.0000 N   0  0  0  0  0  0  0  0  0  0  0  0
   14.5366    6.2903    0.0000 C   0  0  0  0  0  0  0  0  0  0  0  0
   15.7490    6.9903    0.0000 C   0  0  0  0  0  0  0  0  0  0  0  0
   16.9615    6.2903    0.0000 C   0  0  0  0  0  0  0  0  0  0  0  0
  1  2  2  0  0  0  0
  2  3  1  0  0  0  0
  3  4  2  0  0  0  0
  4  5  1  0  0  0  0
  5  6  2  0  0  0  0
  6  1  1  0  0  0  0
  4  7  1  0  0  0  0
  7  8  2  0  0  0  0
  8  9  1  0  0  0  0
  9 10  2  0  0  0  0
 10  5  1  0  0  0  0
  1 11  1  0  0  0  0
 11 12  1  0  0  0  0
  2 13  1  0  0  0  0
 13 14  1  0  0  0  0
 10 15  1  0  0  0  0
 15 16  1  0  0  0  0
 16 17  2  0  0  0  0
 17 18  1  0  0  0  0
 18 19  2  0  0  0  0
 19 20  1  0  0  0  0
 20 21  2  0  0  0  0
 21 16  1  0  0  0  0
 20 22  1  0  0  0  0
 19 23  1  0  0  0  0
 23 24  1  0  0  0  0
 24 25  2  0  0  0  0
 24 26  1  0  0  0  0
 26 27  1  0  0  0  0
 27 28  1  0  0  0  0
 28 29  1  0  0  0  0
M  END
>  <Mol_ID> (112)
343

>  <Formula> (112)
C20H21ClN4O4

>  <MolWeight> (112)
416.85814

>  <Cat> (112)
S1557

>  <Name> (112)
KRN 633

>  <Synonyms> (112)
N/A 

>  <Target> (112)
VEGFR, PDGFR

>  <Form> (112)
Free Base

>  <CAS> (112)
286370-15-8

>  <URL> (112)
http://www.selleckchem.com/products/KRN-633.html

$$$$
AT7867.cdx
csChFnd80/05071909292D

 24 27  0  0  0  0  0  0  0  0999 V2000
    1.2082    9.8471    0.0000 C   0  0  0  0  0  0  0  0  0  0  0  0
    1.2082    8.4471    0.0000 C   0  0  0  0  0  0  0  0  0  0  0  0
    2.4207    7.7471    0.0000 C   0  0  0  0  0  0  0  0  0  0  0  0
    3.6331    8.4471    0.0000 C   0  0  0  0  0  0  0  0  0  0  0  0
    3.6331    9.8471    0.0000 C   0  0  0  0  0  0  0  0  0  0  0  0
    2.4207   10.5471    0.0000 C   0  0  0  0  0  0  0  0  0  0  0  0
    4.8413    7.7495    0.0000 C   0  0  0  0  0  0  0  0  0  0  0  0
    4.8413    6.3495    0.0000 C   0  0  0  0  0  0  0  0  0  0  0  0
    6.0538    7.0495    0.0000 C   0  0  0  0  0  0  0  0  0  0  0  0
    7.2662    7.7495    0.0000 C   0  0  0  0  0  0  0  0  0  0  0  0
    7.2662    9.1495    0.0000 N   0  0  0  0  0  0  0  0  0  0  0  0
    6.0538    9.8495    0.0000 C   0  0  0  0  0  0  0  0  0  0  0  0
    4.8413    9.1495    0.0000 C   0  0  0  0  0  0  0  0  0  0  0  0
    3.6289    5.6495    0.0000 C   0  0  0  0  0  0  0  0  0  0  0  0
    3.6289    4.2495    0.0000 C   0  0  0  0  0  0  0  0  0  0  0  0
    4.8413    3.5495    0.0000 C   0  0  0  0  0  0  0  0  0  0  0  0
    6.0538    4.2495    0.0000 C   0  0  0  0  0  0  0  0  0  0  0  0
    6.0538    5.6495    0.0000 C   0  0  0  0  0  0  0  0  0  0  0  0
    4.8413    2.1544    0.0000 C   0  0  0  0  0  0  0  0  0  0  0  0
    3.7087    1.3315    0.0000 C   0  0  0  0  0  0  0  0  0  0  0  0
    4.1413    0.0000    0.0000 N   0  0  0  0  0  0  0  0  0  0  0  0
    5.5413    0.0000    0.0000 N   0  0  0  0  0  0  0  0  0  0  0  0
    5.9739    1.3315    0.0000 C   0  0  0  0  0  0  0  0  0  0  0  0
    0.0000   10.5447    0.0000 Cl  0  0  0  0  0  0  0  0  0  0  0  0
  1  2  2  0  0  0  0
  2  3  1  0  0  0  0
  3  4  2  0  0  0  0
  4  5  1  0  0  0  0
  5  6  2  0  0  0  0
  6  1  1  0  0  0  0
  4  7  1  0  0  0  0
  7  8  1  0  0  0  0
  7  9  1  0  0  0  0
  9 10  1  0  0  0  0
 10 11  1  0  0  0  0
 11 12  1  0  0  0  0
 12 13  1  0  0  0  0
 13  7  1  0  0  0  0
  8 14  2  0  0  0  0
 14 15  1  0  0  0  0
 15 16  2  0  0  0  0
 16 17  1  0  0  0  0
 17 18  2  0  0  0  0
 18  8  1  0  0  0  0
 16 19  1  0  0  0  0
 19 20  2  0  0  0  0
 20 21  1  0  0  0  0
 21 22  1  0  0  0  0
 22 23  2  0  0  0  0
 23 19  1  0  0  0  0
  1 24  1  0  0  0  0
M  END
>  <Mol_ID> (113)
344

>  <Formula> (113)
C20H20ClN3

>  <MolWeight> (113)
337.8459

>  <Cat> (113)
S1558

>  <Name> (113)
AT7867

>  <Synonyms> (113)
N/A

>  <Target> (113)
Akt, S6 kinase

>  <Form> (113)
Free Base

>  <CAS> (113)
857531-00-1

>  <URL> (113)
http://www.selleckchem.com/products/AT7867.html

$$$$
BMS777607.cdx
csChFnd80/05071909292D

 36 39  0  0  0  0  0  0  0  0999 V2000
    1.2082    2.1000    0.0000 C   0  0  0  0  0  0  0  0  0  0  0  0
    1.2082    0.7000    0.0000 C   0  0  0  0  0  0  0  0  0  0  0  0
    2.4207    0.0000    0.0000 N   0  0  0  0  0  0  0  0  0  0  0  0
    3.6331    0.7000    0.0000 C   0  0  0  0  0  0  0  0  0  0  0  0
    3.6331    2.1000    0.0000 C   0  0  0  0  0  0  0  0  0  0  0  0
    2.4207    2.8000    0.0000 C   0  0  0  0  0  0  0  0  0  0  0  0
    0.0000    0.0024    0.0000 N   0  0  0  0  0  0  0  0  0  0  0  0
    0.0000    2.7976    0.0000 Cl  0  0  0  0  0  0  0  0  0  0  0  0
    2.4207    4.1951    0.0000 O   0  0  0  0  0  0  0  0  0  0  0  0
    3.6331    4.8951    0.0000 C   0  0  0  0  0  0  0  0  0  0  0  0
    4.8455    4.1951    0.0000 C   0  0  0  0  0  0  0  0  0  0  0  0
    6.0580    4.8951    0.0000 C   0  0  0  0  0  0  0  0  0  0  0  0
    6.0580    6.2951    0.0000 C   0  0  0  0  0  0  0  0  0  0  0  0
    4.8455    6.9951    0.0000 C   0  0  0  0  0  0  0  0  0  0  0  0
    3.6331    6.2951    0.0000 C   0  0  0  0  0  0  0  0  0  0  0  0
    2.4249    6.9927    0.0000 F   0  0  0  0  0  0  0  0  0  0  0  0
    7.2662    6.9927    0.0000 N   0  0  0  0  0  0  0  0  0  0  0  0
    8.4744    6.2951    0.0000 C   0  0  0  0  0  0  0  0  0  0  0  0
    9.6827    6.9927    0.0000 C   0  0  0  0  0  0  0  0  0  0  0  0
    8.4744    4.9000    0.0000 O   0  0  0  0  0  0  0  0  0  0  0  0
   10.8951    6.2927    0.0000 C   0  0  0  0  0  0  0  0  0  0  0  0
   12.1075    6.9927    0.0000 N   0  0  0  0  0  0  0  0  0  0  0  0
   12.1075    8.3927    0.0000 C   0  0  0  0  0  0  0  0  0  0  0  0
   10.8951    9.0927    0.0000 C   0  0  0  0  0  0  0  0  0  0  0  0
    9.6827    8.3927    0.0000 C   0  0  0  0  0  0  0  0  0  0  0  0
    8.4744    9.0903    0.0000 O   0  0  0  0  0  0  0  0  0  0  0  0
    8.4744   10.4903    0.0000 C   0  0  0  0  0  0  0  0  0  0  0  0
    7.2620   11.1903    0.0000 C   0  0  0  0  0  0  0  0  0  0  0  0
   10.8951    4.8976    0.0000 O   0  0  0  0  0  0  0  0  0  0  0  0
   13.3158    6.2951    0.0000 C   0  0  0  0  0  0  0  0  0  0  0  0
   13.3158    4.8951    0.0000 C   0  0  0  0  0  0  0  0  0  0  0  0
   14.5282    4.1951    0.0000 C   0  0  0  0  0  0  0  0  0  0  0  0
   15.7406    4.8951    0.0000 C   0  0  0  0  0  0  0  0  0  0  0  0
   15.7406    6.2951    0.0000 C   0  0  0  0  0  0  0  0  0  0  0  0
   14.5282    6.9951    0.0000 C   0  0  0  0  0  0  0  0  0  0  0  0
   16.9489    4.1976    0.0000 F   0  0  0  0  0  0  0  0  0  0  0  0
  1  2  2  0  0  0  0
  2  3  1  0  0  0  0
  3  4  2  0  0  0  0
  4  5  1  0  0  0  0
  5  6  2  0  0  0  0
  6  1  1  0  0  0  0
  2  7  1  0  0  0  0
  1  8  1  0  0  0  0
  6  9  1  0  0  0  0
  9 10  1  0  0  0  0
 10 11  2  0  0  0  0
 11 12  1  0  0  0  0
 12 13  2  0  0  0  0
 13 14  1  0  0  0  0
 14 15  2  0  0  0  0
 15 10  1  0  0  0  0
 15 16  1  0  0  0  0
 13 17  1  0  0  0  0
 17 18  1  0  0  0  0
 18 20  2  0  0  0  0
 19 21  1  0  0  0  0
 21 22  1  0  0  0  0
 22 23  1  0  0  0  0
 23 24  2  0  0  0  0
 24 25  1  0  0  0  0
 25 19  2  0  0  0  0
 25 26  1  0  0  0  0
 26 27  1  0  0  0  0
 27 28  1  0  0  0  0
 19 18  1  0  0  0  0
 21 29  2  0  0  0  0
 22 30  1  0  0  0  0
 30 31  2  0  0  0  0
 31 32  1  0  0  0  0
 32 33  2  0  0  0  0
 33 34  1  0  0  0  0
 34 35  2  0  0  0  0
 35 30  1  0  0  0  0
 33 36  1  0  0  0  0
M  END
>  <Mol_ID> (114)
345

>  <Formula> (114)
C25H19ClF2N4O4

>  <MolWeight> (114)
512.8925664

>  <Cat> (114)
S1561

>  <Name> (114)
BMS 777607

>  <Synonyms> (114)
N/A 

>  <Target> (114)
c-Met

>  <Form> (114)
Free Base

>  <CAS> (114)
1025720-94-8

>  <URL> (114)
http://www.selleckchem.com/products/BMS-777607.html

$$$$
PD318088.cdx
csChFnd80/05071909292D

 27 28  0  0  0  0  0  0  0  0999 V2000
    4.8455    3.5073    0.0000 C   0  0  0  0  0  0  0  0  0  0  0  0
    4.8455    2.1024    0.0000 C   0  0  0  0  0  0  0  0  0  0  0  0
    6.0622    1.4000    0.0000 C   0  0  0  0  0  0  0  0  0  0  0  0
    7.2788    2.1024    0.0000 C   0  0  0  0  0  0  0  0  0  0  0  0
    7.2788    3.5073    0.0000 C   0  0  0  0  0  0  0  0  0  0  0  0
    6.0622    4.2097    0.0000 C   0  0  0  0  0  0  0  0  0  0  0  0
    6.0622    0.0000    0.0000 F   0  0  0  0  0  0  0  0  0  0  0  0
    8.4913    1.4024    0.0000 F   0  0  0  0  0  0  0  0  0  0  0  0
    3.6331    1.4024    0.0000 Br  0  0  0  0  0  0  0  0  0  0  0  0
    6.0622    5.6097    0.0000 C   0  0  0  0  0  0  0  0  0  0  0  0
    8.4913    4.2073    0.0000 N   0  0  0  0  0  0  0  0  0  0  0  0
    9.7037    3.5073    0.0000 C   0  0  0  0  0  0  0  0  0  0  0  0
    9.7037    2.1024    0.0000 C   0  0  0  0  0  0  0  0  0  0  0  0
   10.9204    1.4000    0.0000 C   0  0  0  0  0  0  0  0  0  0  0  0
   12.1370    2.1024    0.0000 C   0  0  0  0  0  0  0  0  0  0  0  0
   12.1370    3.5073    0.0000 C   0  0  0  0  0  0  0  0  0  0  0  0
   10.9204    4.2097    0.0000 C   0  0  0  0  0  0  0  0  0  0  0  0
   10.9204    5.6097    0.0000 F   0  0  0  0  0  0  0  0  0  0  0  0
   13.3494    1.4024    0.0000 I   0  0  0  0  0  0  0  0  0  0  0  0
    4.8497    6.3097    0.0000 N   0  0  0  0  0  0  0  0  0  0  0  0
    7.2746    6.3097    0.0000 O   0  0  0  0  0  0  0  0  0  0  0  0
    3.6373    5.6097    0.0000 O   0  0  0  0  0  0  0  0  0  0  0  0
    2.4249    6.3097    0.0000 C   0  0  0  0  0  0  0  0  0  0  0  0
    1.2124    5.6097    0.0000 C   0  0  3  0  0  0  0  0  0  0  0  0
    0.0000    6.3097    0.0000 C   0  0  0  0  0  0  0  0  0  0  0  0
    1.2124    4.2097    0.0000 O   0  0  0  0  0  0  0  0  0  0  0  0
    0.0000    7.7146    0.0000 O   0  0  0  0  0  0  0  0  0  0  0  0
  1  2  2  0  0  0  0
  2  3  1  0  0  0  0
  3  4  2  0  0  0  0
  4  5  1  0  0  0  0
  5  6  2  0  0  0  0
  6  1  1  0  0  0  0
  3  7  1  0  0  0  0
  4  8  1  0  0  0  0
  2  9  1  0  0  0  0
  6 10  1  0  0  0  0
  5 11  1  0  0  0  0
 11 12  1  0  0  0  0
 12 13  2  0  0  0  0
 13 14  1  0  0  0  0
 14 15  2  0  0  0  0
 15 16  1  0  0  0  0
 16 17  2  0  0  0  0
 17 12  1  0  0  0  0
 17 18  1  0  0  0  0
 15 19  1  0  0  0  0
 10 20  1  0  0  0  0
 10 21  2  0  0  0  0
 20 22  1  0  0  0  0
 22 23  1  0  0  0  0
 23 24  1  0  0  0  0
 24 25  1  0  0  0  0
 24 26  1  0  0  0  0
 25 27  1  0  0  0  0
M  END
>  <Mol_ID> (115)
348

>  <Formula> (115)
C16H13BrF3IN2O4

>  <MolWeight> (115)
561.0890996

>  <Cat> (115)
S1568

>  <Name> (115)
PD318088

>  <Synonyms> (115)
N/A

>  <Target> (115)
MEK 

>  <Form> (115)
Free Base

>  <CAS> (115)
391210-00-7 

>  <URL> (115)
http://www.selleckchem.com/products/PD318088.html

$$$$
KU-60019.cdx
csChFnd80/05071909292D

 39 44  0  0  0  0  0  0  0  0999 V2000
    8.4660    2.1000    0.0000 C   0  0  0  0  0  0  0  0  0  0  0  0
    8.4660    0.7000    0.0000 C   0  0  0  0  0  0  0  0  0  0  0  0
    9.6784    0.0000    0.0000 C   0  0  0  0  0  0  0  0  0  0  0  0
   10.8909    0.7000    0.0000 C   0  0  0  0  0  0  0  0  0  0  0  0
   10.8909    2.1000    0.0000 C   0  0  0  0  0  0  0  0  0  0  0  0
    9.6784    2.8000    0.0000 C   0  0  0  0  0  0  0  0  0  0  0  0
   12.1033    2.8000    0.0000 S   0  0  0  0  0  0  0  0  0  0  0  0
   12.1033    4.2000    0.0000 C   0  0  0  0  0  0  0  0  0  0  0  0
   10.8909    4.9000    0.0000 C   0  0  0  0  0  0  0  0  0  0  0  0
    9.6784    4.2000    0.0000 C   0  0  0  0  0  0  0  0  0  0  0  0
   13.3157    4.9000    0.0000 C   0  0  0  0  0  0  0  0  0  0  0  0
   13.3157    6.3000    0.0000 C   0  0  0  0  0  0  0  0  0  0  0  0
   12.1033    7.0000    0.0000 C   0  0  0  0  0  0  0  0  0  0  0  0
   10.8909    6.3000    0.0000 C   0  0  0  0  0  0  0  0  0  0  0  0
   14.5240    4.2024    0.0000 C   0  0  0  0  0  0  0  0  0  0  0  0
   14.5240    2.8024    0.0000 C   0  0  0  0  0  0  0  0  0  0  0  0
   15.7364    2.1024    0.0000 C   0  0  0  0  0  0  0  0  0  0  0  0
   16.9488    2.8024    0.0000 C   0  0  0  0  0  0  0  0  0  0  0  0
   16.9488    4.2024    0.0000 C   0  0  0  0  0  0  0  0  0  0  0  0
   15.7364    4.9024    0.0000 O   0  0  0  0  0  0  0  0  0  0  0  0
   15.7364    0.7073    0.0000 O   0  0  0  0  0  0  0  0  0  0  0  0
    7.2578    0.0024    0.0000 N   0  0  0  0  0  0  0  0  0  0  0  0
    6.0496    0.7000    0.0000 C   0  0  0  0  0  0  0  0  0  0  0  0
    4.8413    0.0024    0.0000 C   0  0  0  0  0  0  0  0  0  0  0  0
    3.6331    0.7000    0.0000 N   0  0  0  0  0  0  0  0  0  0  0  0
    6.0496    2.0951    0.0000 O   0  0  0  0  0  0  0  0  0  0  0  0
   18.1571    4.9000    0.0000 N   0  0  0  0  0  0  0  0  0  0  0  0
   19.3695    4.2000    0.0000 C   0  0  0  0  0  0  0  0  0  0  0  0
   20.5819    4.9000    0.0000 C   0  0  0  0  0  0  0  0  0  0  0  0
   20.5819    6.3000    0.0000 O   0  0  0  0  0  0  0  0  0  0  0  0
   19.3695    7.0000    0.0000 C   0  0  0  0  0  0  0  0  0  0  0  0
   18.1571    6.3000    0.0000 C   0  0  0  0  0  0  0  0  0  0  0  0
    3.6331    2.1000    0.0000 C   0  0  0  0  0  0  0  0  0  0  0  0
    2.4207    2.8000    0.0000 C   0  0  1  0  0  0  0  0  0  0  0  0
    1.2082    2.1000    0.0000 O   0  0  0  0  0  0  0  0  0  0  0  0
    1.2082    0.7000    0.0000 C   0  0  1  0  0  0  0  0  0  0  0  0
    2.4207    0.0000    0.0000 C   0  0  0  0  0  0  0  0  0  0  0  0
    0.0000    0.0024    0.0000 C   0  0  0  0  0  0  0  0  0  0  0  0
    2.4207    4.1951    0.0000 C   0  0  0  0  0  0  0  0  0  0  0  0
  1  2  2  0  0  0  0
  2  3  1  0  0  0  0
  3  4  2  0  0  0  0
  4  5  1  0  0  0  0
  5  6  2  0  0  0  0
  6  1  1  0  0  0  0
  5  7  1  0  0  0  0
  7  8  1  0  0  0  0
  8  9  2  0  0  0  0
  9 10  1  0  0  0  0
 10  6  1  0  0  0  0
  8 11  1  0  0  0  0
 11 12  2  0  0  0  0
 12 13  1  0  0  0  0
 13 14  2  0  0  0  0
 14  9  1  0  0  0  0
 11 15  1  0  0  0  0
 15 16  2  0  0  0  0
 16 17  1  0  0  0  0
 17 18  1  0  0  0  0
 18 19  2  0  0  0  0
 19 20  1  0  0  0  0
 20 15  1  0  0  0  0
 17 21  2  0  0  0  0
  2 22  1  0  0  0  0
 22 23  1  0  0  0  0
 23 24  1  0  0  0  0
 24 25  1  0  0  0  0
 23 26  2  0  0  0  0
 19 27  1  0  0  0  0
 27 28  1  0  0  0  0
 28 29  1  0  0  0  0
 29 30  1  0  0  0  0
 30 31  1  0  0  0  0
 31 32  1  0  0  0  0
 32 27  1  0  0  0  0
 25 33  1  0  0  0  0
 33 34  1  0  0  0  0
 34 35  1  0  0  0  0
 35 36  1  0  0  0  0
 36 37  1  0  0  0  0
 37 25  1  0  0  0  0
 36 38  1  1  0  0  0
 34 39  1  1  0  0  0
M  END
>  <Mol_ID> (116)
350

>  <Formula> (116)
C30H33N3O5S

>  <MolWeight> (116)
547.66512

>  <Cat> (116)
S1570

>  <Name> (116)
KU-60019

>  <Synonyms> (116)
N/A

>  <Target> (116)
ATM 

>  <Form> (116)
Free Base

>  <CAS> (116)
925701-49-1

>  <URL> (116)
http://www.selleckchem.com/products/KU-60019.html

$$$$
BS-181.cdx
csChFnd80/05071909292D

 29 30  0  0  0  0  0  0  0  0999 V2000
   10.8783    5.9646    0.0000 C   0  0  0  0  0  0  0  0  0  0  0  0
    9.6658    5.2646    0.0000 C   0  0  0  0  0  0  0  0  0  0  0  0
    9.6658    3.8646    0.0000 C   0  0  0  0  0  0  0  0  0  0  0  0
   10.8783    3.1646    0.0000 N   0  0  0  0  0  0  0  0  0  0  0  0
   12.0907    3.8646    0.0000 C   0  0  0  0  0  0  0  0  0  0  0  0
   12.0907    5.2646    0.0000 N   0  0  0  0  0  0  0  0  0  0  0  0
   13.4222    3.4320    0.0000 C   0  0  0  0  0  0  0  0  0  0  0  0
   14.2451    4.5646    0.0000 C   0  0  0  0  0  0  0  0  0  0  0  0
   13.4222    5.6972    0.0000 N   0  0  0  0  0  0  0  0  0  0  0  0
   13.8533    2.1051    0.0000 C   0  0  0  0  0  0  0  0  0  0  0  0
   12.9198    1.0683    0.0000 C   0  0  0  0  0  0  0  0  0  0  0  0
   15.2180    1.8150    0.0000 C   0  0  0  0  0  0  0  0  0  0  0  0
    8.4576    3.1670    0.0000 N   0  0  0  0  0  0  0  0  0  0  0  0
    7.2494    3.8646    0.0000 C   0  0  0  0  0  0  0  0  0  0  0  0
    6.0411    3.1670    0.0000 C   0  0  0  0  0  0  0  0  0  0  0  0
    4.8329    3.8646    0.0000 C   0  0  0  0  0  0  0  0  0  0  0  0
    3.6247    3.1670    0.0000 C   0  0  0  0  0  0  0  0  0  0  0  0
    2.4165    3.8646    0.0000 C   0  0  0  0  0  0  0  0  0  0  0  0
    1.2082    3.1670    0.0000 C   0  0  0  0  0  0  0  0  0  0  0  0
    0.0000    3.8646    0.0000 N   0  0  0  0  0  0  0  0  0  0  0  0
   10.8783    7.3597    0.0000 N   0  0  0  0  0  0  0  0  0  0  0  0
   12.0865    8.0573    0.0000 C   0  0  0  0  0  0  0  0  0  0  0  0
   12.0865    9.4524    0.0000 C   0  0  0  0  0  0  0  0  0  0  0  0
   13.2989   10.1524    0.0000 C   0  0  0  0  0  0  0  0  0  0  0  0
   13.2989   11.5525    0.0000 C   0  0  0  0  0  0  0  0  0  0  0  0
   12.0865   12.2525    0.0000 C   0  0  0  0  0  0  0  0  0  0  0  0
   10.8741   11.5525    0.0000 C   0  0  0  0  0  0  0  0  0  0  0  0
   10.8741   10.1524    0.0000 C   0  0  0  0  0  0  0  0  0  0  0  0
    8.9672    0.0000    0.0000 Cl  0  0  0  0  0  0  0  0  0  0  0  0
  1  2  2  0  0  0  0
  2  3  1  0  0  0  0
  3  4  2  0  0  0  0
  4  5  1  0  0  0  0
  5  6  1  0  0  0  0
  6  1  1  0  0  0  0
  5  7  2  0  0  0  0
  7  8  1  0  0  0  0
  8  9  2  0  0  0  0
  9  6  1  0  0  0  0
  7 10  1  0  0  0  0
 10 11  1  0  0  0  0
 10 12  1  0  0  0  0
  3 13  1  0  0  0  0
 13 14  1  0  0  0  0
 14 15  1  0  0  0  0
 15 16  1  0  0  0  0
 16 17  1  0  0  0  0
 17 18  1  0  0  0  0
 18 19  1  0  0  0  0
 19 20  1  0  0  0  0
  1 21  1  0  0  0  0
 21 22  1  0  0  0  0
 22 23  1  0  0  0  0
 23 24  2  0  0  0  0
 24 25  1  0  0  0  0
 25 26  2  0  0  0  0
 26 27  1  0  0  0  0
 27 28  2  0  0  0  0
 28 23  1  0  0  0  0
M  END
>  <Mol_ID> (117)
351

>  <Formula> (117)
C22H33ClN6

>  <MolWeight> (117)
416.99062

>  <Cat> (117)
S1572

>  <Name> (117)
BS-181 HCl

>  <Synonyms> (117)
N/A

>  <Target> (117)
CDK 

>  <Form> (117)
Hydrochloride

>  <CAS> (117)
1397219-81-6

>  <URL> (117)
http://www.selleckchem.com/products/BS-181.html

$$$$
Fasudil HCl.cdx
csChFnd80/05071909292D

 21 22  0  0  0  0  0  0  0  0999 V2000
    1.2124    6.0083    0.0000 C   0  0  0  0  0  0  0  0  0  0  0  0
    1.2124    4.6083    0.0000 C   0  0  0  0  0  0  0  0  0  0  0  0
    2.4249    3.9083    0.0000 C   0  0  0  0  0  0  0  0  0  0  0  0
    3.6373    4.6083    0.0000 C   0  0  0  0  0  0  0  0  0  0  0  0
    3.6373    6.0083    0.0000 C   0  0  0  0  0  0  0  0  0  0  0  0
    2.4249    6.7083    0.0000 C   0  0  0  0  0  0  0  0  0  0  0  0
    0.0000    3.9083    0.0000 C   0  0  0  0  0  0  0  0  0  0  0  0
    0.0000    2.5083    0.0000 N   0  0  0  0  0  0  0  0  0  0  0  0
    1.2124    1.8083    0.0000 C   0  0  0  0  0  0  0  0  0  0  0  0
    2.4249    2.5083    0.0000 C   0  0  0  0  0  0  0  0  0  0  0  0
    4.8455    3.9108    0.0000 S   0  0  0  0  0  0  0  0  0  0  0  0
    6.0580    3.2108    0.0000 N   0  0  0  0  0  0  0  0  0  0  0  0
    5.5431    5.1190    0.0000 O   0  0  0  0  0  0  0  0  0  0  0  0
    4.1480    2.7025    0.0000 O   0  0  0  0  0  0  0  0  0  0  0  0
    6.0577    1.8108    0.0000 C   0  0  0  0  0  0  0  0  0  0  0  0
    7.1522    0.9377    0.0000 C   0  0  0  0  0  0  0  0  0  0  0  0
    8.5171    1.2490    0.0000 N   0  0  0  0  0  0  0  0  0  0  0  0
    9.1248    2.5103    0.0000 C   0  0  0  0  0  0  0  0  0  0  0  0
    8.5171    3.7717    0.0000 C   0  0  0  0  0  0  0  0  0  0  0  0
    7.1522    4.0835    0.0000 C   0  0  0  0  0  0  0  0  0  0  0  0
    3.1388    0.0000    0.0000 Cl  0  0  0  0  0  0  0  0  0  0  0  0
  1  2  2  0  0  0  0
  2  3  1  0  0  0  0
  3  4  2  0  0  0  0
  4  5  1  0  0  0  0
  5  6  2  0  0  0  0
  6  1  1  0  0  0  0
  2  7  1  0  0  0  0
  7  8  2  0  0  0  0
  8  9  1  0  0  0  0
  9 10  2  0  0  0  0
 10  3  1  0  0  0  0
  4 11  1  0  0  0  0
 11 12  1  0  0  0  0
 11 13  2  0  0  0  0
 11 14  2  0  0  0  0
 12 15  1  0  0  0  0
 15 16  1  0  0  0  0
 16 17  1  0  0  0  0
 17 18  1  0  0  0  0
 18 19  1  0  0  0  0
 19 20  1  0  0  0  0
 20 12  1  0  0  0  0
M  END
>  <Mol_ID> (118)
352

>  <Formula> (118)
C14H18ClN3O2S

>  <MolWeight> (118)
327.82962

>  <Cat> (118)
S1573

>  <Name> (118)
Fasudil HCl (HA-1077)

>  <Synonyms> (118)
AT-877 

>  <Target> (118)
ROCK

>  <Form> (118)
Hydrochloride

>  <CAS> (118)
105628-07-7

>  <URL> (118)
http://www.selleckchem.com/products/Fasudil-HCl(HA-1077).html

$$$$
BIRB 796 (Doramapimod).cdx
csChFnd80/05071909292D

 39 43  0  0  0  0  0  0  0  0999 V2000
    8.3036    7.4376    0.0000 C   0  0  0  0  0  0  0  0  0  0  0  0
    8.3036    6.0376    0.0000 C   0  0  0  0  0  0  0  0  0  0  0  0
    9.5160    5.3376    0.0000 C   0  0  0  0  0  0  0  0  0  0  0  0
   10.7285    6.0376    0.0000 C   0  0  0  0  0  0  0  0  0  0  0  0
   10.7285    7.4376    0.0000 C   0  0  0  0  0  0  0  0  0  0  0  0
    9.5160    8.1376    0.0000 C   0  0  0  0  0  0  0  0  0  0  0  0
    9.5160    3.9376    0.0000 C   0  0  0  0  0  0  0  0  0  0  0  0
   10.7285    3.2376    0.0000 C   0  0  0  0  0  0  0  0  0  0  0  0
   11.9409    3.9376    0.0000 C   0  0  0  0  0  0  0  0  0  0  0  0
   11.9409    5.3376    0.0000 C   0  0  0  0  0  0  0  0  0  0  0  0
   11.9367    8.1351    0.0000 O   0  0  0  0  0  0  0  0  0  0  0  0
   13.1449    7.4376    0.0000 C   0  0  0  0  0  0  0  0  0  0  0  0
   14.3532    8.1351    0.0000 C   0  0  0  0  0  0  0  0  0  0  0  0
   15.5614    7.4376    0.0000 N   0  0  0  0  0  0  0  0  0  0  0  0
    7.0954    5.3400    0.0000 N   0  0  0  0  0  0  0  0  0  0  0  0
    5.8872    6.0376    0.0000 C   0  0  0  0  0  0  0  0  0  0  0  0
    4.6789    5.3400    0.0000 N   0  0  0  0  0  0  0  0  0  0  0  0
    3.4707    6.0376    0.0000 C   0  0  0  0  0  0  0  0  0  0  0  0
    5.8872    7.4327    0.0000 O   0  0  0  0  0  0  0  0  0  0  0  0
    3.3244    7.4299    0.0000 C   0  0  0  0  0  0  0  0  0  0  0  0
    1.9550    7.7210    0.0000 C   0  0  0  0  0  0  0  0  0  0  0  0
    1.2550    6.5085    0.0000 N   0  0  0  0  0  0  0  0  0  0  0  0
    2.1917    5.4681    0.0000 N   0  0  0  0  0  0  0  0  0  0  0  0
    1.3875    8.9955    0.0000 C   0  0  0  0  0  0  0  0  0  0  0  0
    2.2075   10.1242    0.0000 C   0  0  0  0  0  0  0  0  0  0  0  0
    0.0000    9.1413    0.0000 C   0  0  0  0  0  0  0  0  0  0  0  0
    1.0252   10.3478    0.0000 C   0  0  0  0  0  0  0  0  0  0  0  0
    1.9017    4.1035    0.0000 C   0  0  0  0  0  0  0  0  0  0  0  0
    0.5702    3.6708    0.0000 C   0  0  0  0  0  0  0  0  0  0  0  0
    0.2791    2.3014    0.0000 C   0  0  0  0  0  0  0  0  0  0  0  0
    1.3195    1.3647    0.0000 C   0  0  0  0  0  0  0  0  0  0  0  0
    2.6510    1.7973    0.0000 C   0  0  0  0  0  0  0  0  0  0  0  0
    2.9421    3.1667    0.0000 C   0  0  0  0  0  0  0  0  0  0  0  0
   15.5614    6.0376    0.0000 C   0  0  0  0  0  0  0  0  0  0  0  0
   16.7738    5.3376    0.0000 C   0  0  0  0  0  0  0  0  0  0  0  0
   17.9863    6.0376    0.0000 O   0  0  0  0  0  0  0  0  0  0  0  0
   17.9863    7.4376    0.0000 C   0  0  0  0  0  0  0  0  0  0  0  0
   16.7738    8.1376    0.0000 C   0  0  0  0  0  0  0  0  0  0  0  0
    1.0295    0.0000    0.0000 C   0  0  0  0  0  0  0  0  0  0  0  0
  1  2  2  0  0  0  0
  2  3  1  0  0  0  0
  3  4  2  0  0  0  0
  4  5  1  0  0  0  0
  5  6  2  0  0  0  0
  6  1  1  0  0  0  0
  3  7  1  0  0  0  0
  7  8  2  0  0  0  0
  8  9  1  0  0  0  0
  9 10  2  0  0  0  0
 10  4  1  0  0  0  0
  5 11  1  0  0  0  0
 11 12  1  0  0  0  0
 12 13  1  0  0  0  0
 13 14  1  0  0  0  0
  2 15  1  0  0  0  0
 15 16  1  0  0  0  0
 16 17  1  0  0  0  0
 17 18  1  0  0  0  0
 16 19  2  0  0  0  0
 18 20  2  0  0  0  0
 20 21  1  0  0  0  0
 21 22  2  0  0  0  0
 22 23  1  0  0  0  0
 23 18  1  0  0  0  0
 21 24  1  0  0  0  0
 24 25  1  0  0  0  0
 24 26  1  0  0  0  0
 24 27  1  0  0  0  0
 23 28  1  0  0  0  0
 28 29  2  0  0  0  0
 29 30  1  0  0  0  0
 30 31  2  0  0  0  0
 31 32  1  0  0  0  0
 32 33  2  0  0  0  0
 33 28  1  0  0  0  0
 14 34  1  0  0  0  0
 34 35  1  0  0  0  0
 35 36  1  0  0  0  0
 36 37  1  0  0  0  0
 37 38  1  0  0  0  0
 38 14  1  0  0  0  0
 31 39  1  0  0  0  0
M  END
>  <Mol_ID> (119)
353

>  <Formula> (119)
C31H37N5O3

>  <MolWeight> (119)
527.65718

>  <Cat> (119)
S1574

>  <Name> (119)
BIRB 796 (Doramapimod)

>  <Synonyms> (119)
N/A

>  <Target> (119)
p38 MAPK

>  <Form> (119)
Free Base

>  <CAS> (119)
285983-48-4

>  <URL> (119)
http://www.selleckchem.com/products/BIRB-796-(Doramapimod).html

$$$$
Tie 2k inase inhibitor.cdx
csChFnd80/05071909292D

 32 36  0  0  0  0  0  0  0  0999 V2000
    4.8455    2.1000    0.0000 C   0  0  0  0  0  0  0  0  0  0  0  0
    4.8455    0.7000    0.0000 C   0  0  0  0  0  0  0  0  0  0  0  0
    6.0580    0.0000    0.0000 C   0  0  0  0  0  0  0  0  0  0  0  0
    7.2704    0.7000    0.0000 C   0  0  0  0  0  0  0  0  0  0  0  0
    7.2704    2.1000    0.0000 C   0  0  0  0  0  0  0  0  0  0  0  0
    6.0580    2.8000    0.0000 C   0  0  0  0  0  0  0  0  0  0  0  0
    3.6331    2.8000    0.0000 C   0  0  0  0  0  0  0  0  0  0  0  0
    2.4207    2.1000    0.0000 C   0  0  0  0  0  0  0  0  0  0  0  0
    2.4207    0.7000    0.0000 C   0  0  0  0  0  0  0  0  0  0  0  0
    3.6331    0.0000    0.0000 C   0  0  0  0  0  0  0  0  0  0  0  0
    1.2124    0.0024    0.0000 O   0  0  0  0  0  0  0  0  0  0  0  0
    0.0000    0.7024    0.0000 C   0  0  0  0  0  0  0  0  0  0  0  0
    8.4786    2.7976    0.0000 C   0  0  0  0  0  0  0  0  0  0  0  0
    8.4786    4.1976    0.0000 C   0  0  0  0  0  0  0  0  0  0  0  0
    9.8101    2.3649    0.0000 N   0  0  0  0  0  0  0  0  0  0  0  0
   10.6330    3.4976    0.0000 C   0  0  0  0  0  0  0  0  0  0  0  0
    9.8101    4.6302    0.0000 N   0  0  0  0  0  0  0  0  0  0  0  0
   12.0282    3.4976    0.0000 C   0  0  0  0  0  0  0  0  0  0  0  0
    7.3499    5.0176    0.0000 C   0  0  0  0  0  0  0  0  0  0  0  0
    7.3499    6.4176    0.0000 C   0  0  0  0  0  0  0  0  0  0  0  0
    6.1375    7.1176    0.0000 C   0  0  0  0  0  0  0  0  0  0  0  0
    4.9251    6.4176    0.0000 N   0  0  0  0  0  0  0  0  0  0  0  0
    4.9251    5.0176    0.0000 C   0  0  0  0  0  0  0  0  0  0  0  0
    6.1375    4.3176    0.0000 C   0  0  0  0  0  0  0  0  0  0  0  0
   12.7282    2.2851    0.0000 C   0  0  0  0  0  0  0  0  0  0  0  0
   14.1282    2.2851    0.0000 C   0  0  0  0  0  0  0  0  0  0  0  0
   14.8282    3.4976    0.0000 C   0  0  0  0  0  0  0  0  0  0  0  0
   14.1282    4.7100    0.0000 C   0  0  0  0  0  0  0  0  0  0  0  0
   12.7282    4.7100    0.0000 C   0  0  0  0  0  0  0  0  0  0  0  0
   16.2233    3.4976    0.0000 S   0  0  3  0  0  0  0  0  0  0  0  0
   16.9209    2.2893    0.0000 C   0  0  0  0  0  0  0  0  0  0  0  0
   16.9209    4.7058    0.0000 O   0  0  0  0  0  0  0  0  0  0  0  0
  1  2  2  0  0  0  0
  2  3  1  0  0  0  0
  3  4  2  0  0  0  0
  4  5  1  0  0  0  0
  5  6  2  0  0  0  0
  6  1  1  0  0  0  0
  1  7  1  0  0  0  0
  7  8  2  0  0  0  0
  8  9  1  0  0  0  0
  9 10  2  0  0  0  0
 10  2  1  0  0  0  0
  9 11  1  0  0  0  0
 11 12  1  0  0  0  0
  5 13  1  0  0  0  0
 13 14  2  0  0  0  0
 13 15  1  0  0  0  0
 15 16  1  0  0  0  0
 16 17  2  0  0  0  0
 17 14  1  0  0  0  0
 16 18  1  0  0  0  0
 14 19  1  0  0  0  0
 19 20  2  0  0  0  0
 20 21  1  0  0  0  0
 21 22  2  0  0  0  0
 22 23  1  0  0  0  0
 23 24  2  0  0  0  0
 24 19  1  0  0  0  0
 18 25  2  0  0  0  0
 25 26  1  0  0  0  0
 26 27  2  0  0  0  0
 27 28  1  0  0  0  0
 28 29  2  0  0  0  0
 29 18  1  0  0  0  0
 27 30  1  0  0  0  0
 30 31  1  0  0  0  0
 30 32  2  0  0  0  0
M  END
>  <Mol_ID> (120)
354

>  <Formula> (120)
C26H21N3O2S

>  <MolWeight> (120)
439.52884

>  <Cat> (120)
S1577

>  <Name> (120)
Tie2 kinase inhibitor

>  <Synonyms> (120)
N/A

>  <Target> (120)
Tie-2

>  <Form> (120)
Free Base

>  <CAS> (120)
948557-43-5

>  <URL> (120)
http://www.selleckchem.com/products/Tie2-kinase-inhibitor.html

$$$$

csChFnd80/05071909292D

 38 41  0  0  0  0  0  0  0  0999 V2000
    5.2249  -11.8902    0.0000 C   0  0  0  0  0  0  0  0  0  0  0  0
    5.2249  -13.2902    0.0000 C   0  0  0  0  0  0  0  0  0  0  0  0
    6.4373  -13.9902    0.0000 C   0  0  0  0  0  0  0  0  0  0  0  0
    7.6498  -13.2902    0.0000 C   0  0  0  0  0  0  0  0  0  0  0  0
    7.6498  -11.8902    0.0000 C   0  0  0  0  0  0  0  0  0  0  0  0
    6.4373  -11.1902    0.0000 C   0  0  0  0  0  0  0  0  0  0  0  0
    8.8622  -13.9902    0.0000 N   0  0  0  0  0  0  0  0  0  0  0  0
   10.0745  -13.2902    0.0000 C   0  0  0  0  0  0  0  0  0  0  0  0
   10.0745  -11.8902    0.0000 C   0  0  0  0  0  0  0  0  0  0  0  0
    8.8622  -11.1902    0.0000 N   0  0  0  0  0  0  0  0  0  0  0  0
    6.4373   -9.7951    0.0000 C   0  0  0  0  0  0  0  0  0  0  0  0
    7.6498   -9.0951    0.0000 C   0  0  0  0  0  0  0  0  0  0  0  0
    7.6498   -7.6951    0.0000 C   0  0  0  0  0  0  0  0  0  0  0  0
    6.4373   -6.9951    0.0000 C   0  0  0  0  0  0  0  0  0  0  0  0
    5.2249   -7.6951    0.0000 C   0  0  0  0  0  0  0  0  0  0  0  0
    5.2249   -9.0951    0.0000 C   0  0  0  0  0  0  0  0  0  0  0  0
   11.2829  -11.1926    0.0000 C   0  0  0  0  0  0  0  0  0  0  0  0
    8.8580   -6.9975    0.0000 F   0  0  0  0  0  0  0  0  0  0  0  0
    4.0167   -6.9975    0.0000 F   0  0  0  0  0  0  0  0  0  0  0  0
    6.4373   -5.5999    0.0000 C   0  0  0  0  0  0  0  0  0  0  0  0
    5.2249   -4.9000    0.0000 N   0  0  0  0  0  0  0  0  0  0  0  0
    5.2249   -3.4999    0.0000 C   0  0  0  0  0  0  0  0  0  0  0  0
    4.0125   -2.7999    0.0000 C   0  0  0  0  0  0  0  0  0  0  0  0
    2.7999   -3.4999    0.0000 O   0  0  0  0  0  0  0  0  0  0  0  0
    2.7999   -4.9000    0.0000 C   0  0  0  0  0  0  0  0  0  0  0  0
    4.0125   -5.5999    0.0000 C   0  0  0  0  0  0  0  0  0  0  0  0
   12.5618  -11.7621    0.0000 C   0  0  0  0  0  0  0  0  0  0  0  0
   13.4986  -10.7217    0.0000 N   0  0  0  0  0  0  0  0  0  0  0  0
   12.7985   -9.5092    0.0000 N   0  0  0  0  0  0  0  0  0  0  0  0
   11.4292   -9.8003    0.0000 C   0  0  0  0  0  0  0  0  0  0  0  0
   14.8861  -10.8675    0.0000 C   0  0  0  0  0  0  0  0  0  0  0  0
   15.4153  -12.1636    0.0000 C   0  0  0  0  0  0  0  0  0  0  0  0
   16.8024  -12.3534    0.0000 C   0  0  0  0  0  0  0  0  0  0  0  0
   17.6603  -11.2470    0.0000 N   0  0  0  0  0  0  0  0  0  0  0  0
   17.1311   -9.9509    0.0000 C   0  0  0  0  0  0  0  0  0  0  0  0
   15.7440   -9.7611    0.0000 C   0  0  0  0  0  0  0  0  0  0  0  0
    5.8926   -8.3950    0.0000 Cl  0  0  0  0  0  0  0  0  0  0  0  0
    4.4926   -8.3950    0.0000 Cl  0  0  0  0  0  0  0  0  0  0  0  0
  1  2  2  0  0  0  0
  2  3  1  0  0  0  0
  3  4  2  0  0  0  0
  4  5  1  0  0  0  0
  5  6  2  0  0  0  0
  6  1  1  0  0  0  0
  4  7  1  0  0  0  0
  7  8  2  0  0  0  0
  8  9  1  0  0  0  0
  9 10  2  0  0  0  0
 10  5  1  0  0  0  0
  6 11  1  0  0  0  0
 11 12  2  0  0  0  0
 12 13  1  0  0  0  0
 13 14  2  0  0  0  0
 14 15  1  0  0  0  0
 15 16  2  0  0  0  0
 16 11  1  0  0  0  0
  9 17  1  0  0  0  0
 13 18  1  0  0  0  0
 15 19  1  0  0  0  0
 14 20  1  0  0  0  0
 20 21  1  0  0  0  0
 21 22  1  0  0  0  0
 22 23  1  0  0  0  0
 23 24  1  0  0  0  0
 24 25  1  0  0  0  0
 25 26  1  0  0  0  0
 26 21  1  0  0  0  0
 17 27  2  0  0  0  0
 27 28  1  0  0  0  0
 28 29  1  0  0  0  0
 29 30  2  0  0  0  0
 30 17  1  0  0  0  0
 28 31  1  0  0  0  0
 31 32  1  0  0  0  0
 32 33  1  0  0  0  0
 33 34  1  0  0  0  0
 34 35  1  0  0  0  0
 35 36  1  0  0  0  0
 36 31  1  0  0  0  0
M  END
>  <Mol_ID> (121)
360

>  <Formula> (121)
C27H30Cl2F2N6O

>  <MolWeight> (121)
563.4695064

>  <Cat> (121)
S2686 

>  <Name> (121)
NVP-BSK805 2HCl

>  <Synonyms> (121)
N/A

>  <Target> (121)
JAK

>  <Form> (121)
HCl

>  <CAS> (121)
1092499-93-8 (free base)

>  <URL> (121)
http://www.selleckchem.com/products/nvp-bsk805.html

$$$$
APRISO (mesalamine).cdx
csChFnd80/05071909292D

 11 11  0  0  0  0  0  0  0  0999 V2000
    2.4165    3.4951    0.0000 C   0  0  0  0  0  0  0  0  0  0  0  0
    2.4165    2.0951    0.0000 C   0  0  0  0  0  0  0  0  0  0  0  0
    3.6289    1.3951    0.0000 C   0  0  0  0  0  0  0  0  0  0  0  0
    4.8413    2.0951    0.0000 C   0  0  0  0  0  0  0  0  0  0  0  0
    4.8413    3.4951    0.0000 C   0  0  0  0  0  0  0  0  0  0  0  0
    3.6289    4.1951    0.0000 C   0  0  0  0  0  0  0  0  0  0  0  0
    1.2082    1.3976    0.0000 C   0  0  0  0  0  0  0  0  0  0  0  0
    0.0000    2.0951    0.0000 O   0  0  0  0  0  0  0  0  0  0  0  0
    1.2082    0.0024    0.0000 O   0  0  0  0  0  0  0  0  0  0  0  0
    3.6289    0.0000    0.0000 O   0  0  0  0  0  0  0  0  0  0  0  0
    3.6289    5.5903    0.0000 N   0  0  0  0  0  0  0  0  0  0  0  0
  1  2  2  0  0  0  0
  2  3  1  0  0  0  0
  3  4  2  0  0  0  0
  4  5  1  0  0  0  0
  5  6  2  0  0  0  0
  6  1  1  0  0  0  0
  2  7  1  0  0  0  0
  7  8  1  0  0  0  0
  7  9  2  0  0  0  0
  3 10  1  0  0  0  0
  6 11  1  0  0  0  0
M  END
>  <Mol_ID> (122)
410

>  <Formula> (122)
C7H7NO3

>  <MolWeight> (122)
153.13538

>  <Cat> (122)
S1681

>  <Name> (122)
Mesalamine (Lialda)

>  <Synonyms> (122)
Apriso, 5-aminosalicylic acid, Mesalazine, Asacol, Pentasa, Canasa 

>  <Target> (122)
IB/IKK

>  <Form> (122)
Free Base

>  <CAS> (122)
89-57-6

>  <URL> (122)
http://www.selleckchem.com/products/Mesalamine(Lialda).html

$$$$
DCC-2036.cdx
csChFnd80/05071909292D

 41 45  0  0  0  0  0  0  0  0999 V2000
    8.3036    4.1704    0.0000 C   0  0  0  0  0  0  0  0  0  0  0  0
    8.3036    2.7704    0.0000 C   0  0  0  0  0  0  0  0  0  0  0  0
    9.5160    2.0704    0.0000 C   0  0  0  0  0  0  0  0  0  0  0  0
   10.7285    2.7704    0.0000 C   0  0  0  0  0  0  0  0  0  0  0  0
   10.7285    4.1704    0.0000 C   0  0  0  0  0  0  0  0  0  0  0  0
    9.5160    4.8704    0.0000 C   0  0  0  0  0  0  0  0  0  0  0  0
   11.9367    2.0728    0.0000 O   0  0  0  0  0  0  0  0  0  0  0  0
   13.1449    2.7704    0.0000 C   0  0  0  0  0  0  0  0  0  0  0  0
   14.3574    2.0704    0.0000 C   0  0  0  0  0  0  0  0  0  0  0  0
   15.5698    2.7704    0.0000 C   0  0  0  0  0  0  0  0  0  0  0  0
   15.5698    4.1704    0.0000 N   0  0  0  0  0  0  0  0  0  0  0  0
   14.3574    4.8704    0.0000 C   0  0  0  0  0  0  0  0  0  0  0  0
   13.1449    4.1704    0.0000 C   0  0  0  0  0  0  0  0  0  0  0  0
   16.7780    2.0728    0.0000 C   0  0  0  0  0  0  0  0  0  0  0  0
   17.9863    2.7704    0.0000 N   0  0  0  0  0  0  0  0  0  0  0  0
   19.1945    2.0728    0.0000 C   0  0  0  0  0  0  0  0  0  0  0  0
   16.7780    0.6777    0.0000 O   0  0  0  0  0  0  0  0  0  0  0  0
    7.0954    2.0728    0.0000 F   0  0  0  0  0  0  0  0  0  0  0  0
    7.0954    4.8679    0.0000 N   0  0  0  0  0  0  0  0  0  0  0  0
    5.8872    4.1704    0.0000 C   0  0  0  0  0  0  0  0  0  0  0  0
    4.6789    4.8679    0.0000 N   0  0  0  0  0  0  0  0  0  0  0  0
    5.8872    2.7704    0.0000 O   0  0  0  0  0  0  0  0  0  0  0  0
    3.4707    4.1704    0.0000 C   0  0  0  0  0  0  0  0  0  0  0  0
    2.1917    4.7398    0.0000 N   0  0  0  0  0  0  0  0  0  0  0  0
    1.2550    3.6994    0.0000 N   0  0  0  0  0  0  0  0  0  0  0  0
    1.9550    2.4870    0.0000 C   0  0  0  0  0  0  0  0  0  0  0  0
    3.3244    2.7780    0.0000 C   0  0  0  0  0  0  0  0  0  0  0  0
    1.3875    1.2124    0.0000 C   0  0  0  0  0  0  0  0  0  0  0  0
    0.0000    1.0666    0.0000 C   0  0  0  0  0  0  0  0  0  0  0  0
    2.2075    0.0837    0.0000 C   0  0  0  0  0  0  0  0  0  0  0  0
    0.6875    0.0000    0.0000 C   0  0  0  0  0  0  0  0  0  0  0  0
    1.9017    6.1045    0.0000 C   0  0  0  0  0  0  0  0  0  0  0  0
    2.9421    7.0412    0.0000 C   0  0  0  0  0  0  0  0  0  0  0  0
    2.6510    8.4106    0.0000 C   0  0  0  0  0  0  0  0  0  0  0  0
    1.3195    8.8433    0.0000 C   0  0  0  0  0  0  0  0  0  0  0  0
    0.2791    7.9065    0.0000 C   0  0  0  0  0  0  0  0  0  0  0  0
    0.5702    6.5371    0.0000 C   0  0  0  0  0  0  0  0  0  0  0  0
    3.6914    9.3474    0.0000 C   0  0  0  0  0  0  0  0  0  0  0  0
    3.4003   10.7168    0.0000 C   0  0  0  0  0  0  0  0  0  0  0  0
    2.0688   11.1495    0.0000 C   0  0  0  0  0  0  0  0  0  0  0  0
    1.0284   10.2127    0.0000 N   0  0  0  0  0  0  0  0  0  0  0  0
  1  2  2  0  0  0  0
  2  3  1  0  0  0  0
  3  4  2  0  0  0  0
  4  5  1  0  0  0  0
  5  6  2  0  0  0  0
  6  1  1  0  0  0  0
  4  7  1  0  0  0  0
  7  8  1  0  0  0  0
  8  9  2  0  0  0  0
  9 10  1  0  0  0  0
 10 11  2  0  0  0  0
 11 12  1  0  0  0  0
 12 13  2  0  0  0  0
 13  8  1  0  0  0  0
 10 14  1  0  0  0  0
 14 15  1  0  0  0  0
 15 16  1  0  0  0  0
 14 17  2  0  0  0  0
  2 18  1  0  0  0  0
  1 19  1  0  0  0  0
 19 20  1  0  0  0  0
 20 21  1  0  0  0  0
 20 22  2  0  0  0  0
 21 23  1  0  0  0  0
 23 24  1  0  0  0  0
 24 25  1  0  0  0  0
 25 26  2  0  0  0  0
 26 27  1  0  0  0  0
 27 23  2  0  0  0  0
 26 28  1  0  0  0  0
 28 29  1  0  0  0  0
 28 30  1  0  0  0  0
 28 31  1  0  0  0  0
 24 32  1  0  0  0  0
 32 33  2  0  0  0  0
 33 34  1  0  0  0  0
 34 35  2  0  0  0  0
 35 36  1  0  0  0  0
 36 37  2  0  0  0  0
 37 32  1  0  0  0  0
 34 38  1  0  0  0  0
 38 39  2  0  0  0  0
 39 40  1  0  0  0  0
 40 41  2  0  0  0  0
 41 35  1  0  0  0  0
M  END
>  <Mol_ID> (123)
427

>  <Formula> (123)
C30H28FN7O3

>  <MolWeight> (123)
553.5868232

>  <Cat> (123)
S2634

>  <Name> (123)
DCC-2036 (Rebastinib)

>  <Synonyms> (123)
N/A 

>  <Target> (123)
Bcr-Abl

>  <Form> (123)
Free Base

>  <CAS> (123)
1020172-07-9

>  <URL> (123)
http://www.selleckchem.com/products/dcc-2036.html

$$$$
Pitavastatin calcium.cdx
csChFnd80/05071909292D

 63 68  0  0  0  0  0  0  0  0999 V2000
   12.5069    5.8382    0.0000 Ca  0  2  0  0  0  0  0  0  0  0  0  0
    0.1925   11.5078    0.0000 C   0  0  0  0  0  0  0  0  0  0  0  0
    0.1925   10.1078    0.0000 C   0  0  0  0  0  0  0  0  0  0  0  0
    1.4049    9.4078    0.0000 C   0  0  0  0  0  0  0  0  0  0  0  0
    2.6173   10.1078    0.0000 C   0  0  0  0  0  0  0  0  0  0  0  0
    2.6173   11.5078    0.0000 C   0  0  0  0  0  0  0  0  0  0  0  0
    1.4049   12.2078    0.0000 C   0  0  0  0  0  0  0  0  0  0  0  0
    3.8297    9.4078    0.0000 N   0  0  0  0  0  0  0  0  0  0  0  0
    5.0421   10.1078    0.0000 C   0  0  0  0  0  0  0  0  0  0  0  0
    5.0421   11.5078    0.0000 C   0  0  0  0  0  0  0  0  0  0  0  0
    3.8297   12.2078    0.0000 C   0  0  0  0  0  0  0  0  0  0  0  0
    6.4363    8.9380    0.0000 C   0  0  0  0  0  0  0  0  0  0  0  0
    6.9151    7.6224    0.0000 C   0  0  0  0  0  0  0  0  0  0  0  0
    7.8150    8.6948    0.0000 C   0  0  0  0  0  0  0  0  0  0  0  0
    3.8297   13.6077    0.0000 C   0  0  0  0  0  0  0  0  0  0  0  0
    5.0421   14.3077    0.0000 C   0  0  0  0  0  0  0  0  0  0  0  0
    5.0421   15.7077    0.0000 C   0  0  0  0  0  0  0  0  0  0  0  0
    3.8297   16.4077    0.0000 C   0  0  0  0  0  0  0  0  0  0  0  0
    2.6173   15.7077    0.0000 C   0  0  0  0  0  0  0  0  0  0  0  0
    2.6173   14.3077    0.0000 C   0  0  0  0  0  0  0  0  0  0  0  0
    3.8297   17.8076    0.0000 F   0  0  0  0  0  0  0  0  0  0  0  0
    6.4363   12.6776    0.0000 C   0  0  0  0  0  0  0  0  0  0  0  0
    7.8150   12.4345    0.0000 C   0  0  0  0  0  0  0  0  0  0  0  0
    8.2938   11.1190    0.0000 C   0  0  1  0  0  0  0  0  0  0  0  0
    7.3939   10.0465    0.0000 O   0  0  0  0  0  0  0  0  0  0  0  0
    9.6725   10.8759    0.0000 C   0  0  0  0  0  0  0  0  0  0  0  0
   10.5724   11.9483    0.0000 C   0  0  2  0  0  0  0  0  0  0  0  0
   10.0935   13.2639    0.0000 C   0  0  0  0  0  0  0  0  0  0  0  0
   10.9934   14.3363    0.0000 C   0  0  0  0  0  0  0  0  0  0  0  0
   10.5146   15.6518    0.0000 O   0  5  0  0  0  0  0  0  0  0  0  0
   12.3721   14.0932    0.0000 O   0  0  0  0  0  0  0  0  0  0  0  0
   11.9511   11.7052    0.0000 O   0  0  0  0  0  0  0  0  0  0  0  0
    0.1925    0.0280    0.0000 C   0  0  0  0  0  0  0  0  0  0  0  0
    0.1925   -1.3719    0.0000 C   0  0  0  0  0  0  0  0  0  0  0  0
    1.4049   -2.0719    0.0000 C   0  0  0  0  0  0  0  0  0  0  0  0
    2.6173   -1.3719    0.0000 C   0  0  0  0  0  0  0  0  0  0  0  0
    2.6173    0.0280    0.0000 C   0  0  0  0  0  0  0  0  0  0  0  0
    1.4049    0.7280    0.0000 C   0  0  0  0  0  0  0  0  0  0  0  0
    3.8297   -2.0719    0.0000 N   0  0  0  0  0  0  0  0  0  0  0  0
    5.0421   -1.3719    0.0000 C   0  0  0  0  0  0  0  0  0  0  0  0
    5.0421    0.0280    0.0000 C   0  0  0  0  0  0  0  0  0  0  0  0
    3.8297    0.7280    0.0000 C   0  0  0  0  0  0  0  0  0  0  0  0
    6.4363   -2.5418    0.0000 C   0  0  0  0  0  0  0  0  0  0  0  0
    6.9151   -3.8573    0.0000 C   0  0  0  0  0  0  0  0  0  0  0  0
    7.8150   -2.7849    0.0000 C   0  0  0  0  0  0  0  0  0  0  0  0
    3.8297    2.1280    0.0000 C   0  0  0  0  0  0  0  0  0  0  0  0
    5.0421    2.8280    0.0000 C   0  0  0  0  0  0  0  0  0  0  0  0
    5.0421    4.2279    0.0000 C   0  0  0  0  0  0  0  0  0  0  0  0
    3.8297    4.9279    0.0000 C   0  0  0  0  0  0  0  0  0  0  0  0
    2.6173    4.2279    0.0000 C   0  0  0  0  0  0  0  0  0  0  0  0
    2.6173    2.8280    0.0000 C   0  0  0  0  0  0  0  0  0  0  0  0
    3.8297    6.3279    0.0000 F   0  0  0  0  0  0  0  0  0  0  0  0
    6.4363    1.1979    0.0000 C   0  0  0  0  0  0  0  0  0  0  0  0
    7.8150    0.9548    0.0000 C   0  0  0  0  0  0  0  0  0  0  0  0
    8.2938   -0.3608    0.0000 C   0  0  1  0  0  0  0  0  0  0  0  0
    7.3939   -1.4332    0.0000 O   0  0  0  0  0  0  0  0  0  0  0  0
    9.6725   -0.6039    0.0000 C   0  0  0  0  0  0  0  0  0  0  0  0
   10.5724    0.4686    0.0000 C   0  0  2  0  0  0  0  0  0  0  0  0
   10.0935    1.7841    0.0000 C   0  0  0  0  0  0  0  0  0  0  0  0
   10.9934    2.8566    0.0000 C   0  0  0  0  0  0  0  0  0  0  0  0
   10.5146    4.1721    0.0000 O   0  5  0  0  0  0  0  0  0  0  0  0
   12.3721    2.6134    0.0000 O   0  0  0  0  0  0  0  0  0  0  0  0
   11.9511    0.2255    0.0000 O   0  0  0  0  0  0  0  0  0  0  0  0
  2  3  2  0  0  0  0
  3  4  1  0  0  0  0
  4  5  2  0  0  0  0
  5  6  1  0  0  0  0
  6  7  2  0  0  0  0
  7  2  1  0  0  0  0
  5  8  1  0  0  0  0
  8  9  2  0  0  0  0
  9 10  1  0  0  0  0
 10 11  2  0  0  0  0
 11  6  1  0  0  0  0
  9 12  1  0  0  0  0
 12 13  1  0  0  0  0
 13 14  1  0  0  0  0
 14 12  1  0  0  0  0
 11 15  1  0  0  0  0
 15 16  2  0  0  0  0
 16 17  1  0  0  0  0
 17 18  2  0  0  0  0
 18 19  1  0  0  0  0
 19 20  2  0  0  0  0
 20 15  1  0  0  0  0
 18 21  1  0  0  0  0
 10 22  1  0  0  0  0
 22 23  2  3  0  0  0
 24 23  1  0  0  0  0
 24 25  1  6  0  0  0
 24 26  1  0  0  0  0
 26 27  1  0  0  0  0
 27 28  1  0  0  0  0
 28 29  1  0  0  0  0
 29 30  1  0  0  0  0
 29 31  2  0  0  0  0
 27 32  1  6  0  0  0
 33 34  2  0  0  0  0
 34 35  1  0  0  0  0
 35 36  2  0  0  0  0
 36 37  1  0  0  0  0
 37 38  2  0  0  0  0
 38 33  1  0  0  0  0
 36 39  1  0  0  0  0
 39 40  2  0  0  0  0
 40 41  1  0  0  0  0
 41 42  2  0  0  0  0
 42 37  1  0  0  0  0
 40 43  1  0  0  0  0
 43 44  1  0  0  0  0
 44 45  1  0  0  0  0
 45 43  1  0  0  0  0
 42 46  1  0  0  0  0
 46 47  2  0  0  0  0
 47 48  1  0  0  0  0
 48 49  2  0  0  0  0
 49 50  1  0  0  0  0
 50 51  2  0  0  0  0
 51 46  1  0  0  0  0
 49 52  1  0  0  0  0
 41 53  1  0  0  0  0
 53 54  2  3  0  0  0
 55 54  1  0  0  0  0
 55 56  1  6  0  0  0
 55 57  1  0  0  0  0
 57 58  1  0  0  0  0
 58 59  1  0  0  0  0
 59 60  1  0  0  0  0
 60 61  1  0  0  0  0
 60 62  2  0  0  0  0
 58 63  1  6  0  0  0
M  CFW  24 B_NG_STER 3
M  CFW  58 B_NG_STER 3
M  END
>  <Mol_ID> (124)
448

>  <Formula> (124)
C50H46CaF2N2O8

>  <MolWeight> (124)
880.9836464

>  <Cat> (124)
S1759

>  <Name> (124)
Pitavastatin calcium (Livalo)

>  <Synonyms> (124)
Livalo

>  <Target> (124)
HMG-CoA Reductase

>  <Form> (124)
Calcium salt

>  <CAS> (124)
147526-32-7

>  <URL> (124)
http://www.selleckchem.com/products/Pitavastatin-calcium(Livalo).html

$$$$
Baricitinib.cdx
csChFnd80/05071909292D

 26 29  0  0  0  0  0  0  0  0999 V2000
    5.7433    1.4000    0.0000 N   0  0  0  0  0  0  0  0  0  0  0  0
    4.7533    0.4101    0.0000 C   0  0  0  0  0  0  0  0  0  0  0  0
    3.7634    1.4000    0.0000 C   0  0  0  0  0  0  0  0  0  0  0  0
    4.7533    2.3900    0.0000 C   0  0  0  0  0  0  0  0  0  0  0  0
    1.4211    0.7724    0.0000 C   0  0  0  0  0  0  0  0  0  0  0  0
    2.7734    0.4101    0.0000 C   0  0  0  0  0  0  0  0  0  0  0  0
    0.0688    1.1347    0.0000 N   0  0  0  0  0  0  0  0  0  0  0  0
    2.7734    2.3899    0.0000 N   0  0  0  0  0  0  0  0  0  0  0  0
    1.3907    2.1709    0.0000 N   0  0  0  0  0  0  0  0  0  0  0  0
    0.7551    3.4183    0.0000 C   0  0  0  0  0  0  0  0  0  0  0  0
    1.7450    4.4083    0.0000 C   0  0  0  0  0  0  0  0  0  0  0  0
    2.9924    3.7727    0.0000 C   0  0  0  0  0  0  0  0  0  0  0  0
    0.0000    7.6755    0.0000 C   0  0  0  0  0  0  0  0  0  0  0  0
    1.0880    8.5566    0.0000 N   0  0  0  0  0  0  0  0  0  0  0  0
    2.3950    8.0549    0.0000 C   0  0  0  0  0  0  0  0  0  0  0  0
    2.6140    6.6721    0.0000 C   0  0  0  0  0  0  0  0  0  0  0  0
    1.5260    5.7911    0.0000 C   0  0  0  0  0  0  0  0  0  0  0  0
    0.2190    6.2928    0.0000 N   0  0  0  0  0  0  0  0  0  0  0  0
    3.6424    8.6905    0.0000 N   0  0  0  0  0  0  0  0  0  0  0  0
    3.9968    6.4531    0.0000 C   0  0  0  0  0  0  0  0  0  0  0  0
    4.6324    7.7005    0.0000 C   0  0  0  0  0  0  0  0  0  0  0  0
    7.1433    1.4000    0.0000 S   0  0  0  0  0  0  0  0  0  0  0  0
    7.1433    0.0000    0.0000 O   0  0  0  0  0  0  0  0  0  0  0  0
    7.1433    2.8000    0.0000 O   0  0  0  0  0  0  0  0  0  0  0  0
    8.5433    1.4000    0.0000 C   0  0  0  0  0  0  0  0  0  0  0  0
    9.2433    2.6124    0.0000 C   0  0  0  0  0  0  0  0  0  0  0  0
  1  2  1  0  0  0  0
  2  3  1  0  0  0  0
  3  4  1  0  0  0  0
  1  4  1  0  0  0  0
  5  6  1  0  0  0  0
  5  7  3  0  0  0  0
  3  6  1  0  0  0  0
  8  9  1  0  0  0  0
  9 10  2  0  0  0  0
 10 11  1  0  0  0  0
 11 12  2  0  0  0  0
  8 12  1  0  0  0  0
 13 14  2  0  0  0  0
 14 15  1  0  0  0  0
 15 16  2  0  0  0  0
 16 17  1  0  0  0  0
 17 18  2  0  0  0  0
 13 18  1  0  0  0  0
 20 21  2  0  0  0  0
 19 21  1  0  0  0  0
 15 19  1  0  0  0  0
 16 20  1  0  0  0  0
 11 17  1  0  0  0  0
  3  8  1  0  0  0  0
 22 23  2  0  0  0  0
 22 24  2  0  0  0  0
 25 26  1  0  0  0  0
 22 25  1  0  0  0  0
  1 22  1  0  0  0  0
M  END
>  <Mol_ID> (125)
472

>  <Formula> (125)
C16H17N7O2S

>  <MolWeight> (125)
371.41688

>  <Cat> (125)
S2851

>  <Name> (125)
Baricitinib (LY3009104)

>  <Synonyms> (125)
INCB 28050

>  <Target> (125)
JAK

>  <Form> (125)
Free Base

>  <CAS> (125)
1187594-09-7

>  <URL> (125)
http://www.selleckchem.com/products/baricitinib-ly3009104.html

$$$$
Biochanin A.cdx
csChFnd80/05071909292D

 21 23  0  0  0  0  0  0  0  0999 V2000
    1.2082    4.1976    0.0000 C   0  0  0  0  0  0  0  0  0  0  0  0
    1.2082    2.7976    0.0000 C   0  0  0  0  0  0  0  0  0  0  0  0
    2.4207    2.0976    0.0000 C   0  0  0  0  0  0  0  0  0  0  0  0
    3.6331    2.7976    0.0000 C   0  0  0  0  0  0  0  0  0  0  0  0
    3.6331    4.1976    0.0000 C   0  0  0  0  0  0  0  0  0  0  0  0
    2.4207    4.8976    0.0000 C   0  0  0  0  0  0  0  0  0  0  0  0
    4.8455    2.0976    0.0000 C   0  0  0  0  0  0  0  0  0  0  0  0
    6.0580    2.7976    0.0000 C   0  0  0  0  0  0  0  0  0  0  0  0
    6.0580    4.1976    0.0000 C   0  0  0  0  0  0  0  0  0  0  0  0
    4.8455    4.8976    0.0000 O   0  0  0  0  0  0  0  0  0  0  0  0
    0.0000    4.8951    0.0000 O   0  0  0  0  0  0  0  0  0  0  0  0
    4.8455    0.7024    0.0000 O   0  0  0  0  0  0  0  0  0  0  0  0
    7.2662    2.1000    0.0000 C   0  0  0  0  0  0  0  0  0  0  0  0
    7.2662    0.7000    0.0000 C   0  0  0  0  0  0  0  0  0  0  0  0
    8.4786    0.0000    0.0000 C   0  0  0  0  0  0  0  0  0  0  0  0
    9.6911    0.7000    0.0000 C   0  0  0  0  0  0  0  0  0  0  0  0
    9.6911    2.1000    0.0000 C   0  0  0  0  0  0  0  0  0  0  0  0
    8.4786    2.8000    0.0000 C   0  0  0  0  0  0  0  0  0  0  0  0
   10.8993    0.0024    0.0000 O   0  0  0  0  0  0  0  0  0  0  0  0
   12.1075    0.7000    0.0000 C   0  0  0  0  0  0  0  0  0  0  0  0
    2.4207    0.7024    0.0000 O   0  0  0  0  0  0  0  0  0  0  0  0
  1  2  2  0  0  0  0
  2  3  1  0  0  0  0
  3  4  2  0  0  0  0
  4  5  1  0  0  0  0
  5  6  2  0  0  0  0
  6  1  1  0  0  0  0
  4  7  1  0  0  0  0
  7  8  1  0  0  0  0
  8  9  2  0  0  0  0
  9 10  1  0  0  0  0
 10  5  1  0  0  0  0
  1 11  1  0  0  0  0
  7 12  2  0  0  0  0
  8 13  1  0  0  0  0
 13 14  2  0  0  0  0
 14 15  1  0  0  0  0
 15 16  2  0  0  0  0
 16 17  1  0  0  0  0
 17 18  2  0  0  0  0
 18 13  1  0  0  0  0
 16 19  1  0  0  0  0
 19 20  1  0  0  0  0
  3 21  1  0  0  0  0
M  END
>  <Mol_ID> (126)
519

>  <Formula> (126)
C16H12O5

>  <MolWeight> (126)
284.26348

>  <Cat> (126)
S2377

>  <Name> (126)
Biochanin A (4-Methylgenistein)

>  <Synonyms> (126)
4-Methylgenistein

>  <Target> (126)
FAAH

>  <Form> (126)
Free Base

>  <CAS> (126)
491-80-5

>  <URL> (126)
http://www.selleckchem.com/products/Biochanin-A(4-Methylgenistein).html

$$$$
Indirubin.cdx
csChFnd80/05071909292D

 20 23  0  0  0  0  0  0  0  0999 V2000
    0.0000    7.7309    0.0000 C   0  0  0  0  0  0  0  0  0  0  0  0
    0.0000    6.3309    0.0000 C   0  0  0  0  0  0  0  0  0  0  0  0
    1.2124    5.6309    0.0000 C   0  0  0  0  0  0  0  0  0  0  0  0
    2.4249    6.3309    0.0000 C   0  0  0  0  0  0  0  0  0  0  0  0
    2.4249    7.7309    0.0000 C   0  0  0  0  0  0  0  0  0  0  0  0
    1.2124    8.4309    0.0000 C   0  0  0  0  0  0  0  0  0  0  0  0
    3.7563    5.8983    0.0000 C   0  0  0  0  0  0  0  0  0  0  0  0
    4.5792    7.0309    0.0000 C   0  0  0  0  0  0  0  0  0  0  0  0
    3.7563    8.1635    0.0000 N   0  0  0  0  0  0  0  0  0  0  0  0
    5.9744    7.0309    0.0000 O   0  0  0  0  0  0  0  0  0  0  0  0
    4.1875    4.5714    0.0000 C   0  0  0  0  0  0  0  0  0  0  0  0
    3.3646    3.4388    0.0000 N   0  0  0  0  0  0  0  0  0  0  0  0
    4.1875    2.3062    0.0000 C   0  0  0  0  0  0  0  0  0  0  0  0
    5.5190    2.7388    0.0000 C   0  0  0  0  0  0  0  0  0  0  0  0
    5.5190    4.1388    0.0000 C   0  0  0  0  0  0  0  0  0  0  0  0
    3.8964    0.9368    0.0000 C   0  0  0  0  0  0  0  0  0  0  0  0
    4.9368    0.0000    0.0000 C   0  0  0  0  0  0  0  0  0  0  0  0
    6.2683    0.4326    0.0000 C   0  0  0  0  0  0  0  0  0  0  0  0
    6.5594    1.8020    0.0000 C   0  0  0  0  0  0  0  0  0  0  0  0
    6.6476    4.9589    0.0000 O   0  0  0  0  0  0  0  0  0  0  0  0
  1  2  2  0  0  0  0
  2  3  1  0  0  0  0
  3  4  2  0  0  0  0
  4  5  1  0  0  0  0
  5  6  2  0  0  0  0
  6  1  1  0  0  0  0
  4  7  1  0  0  0  0
  7  8  1  0  0  0  0
  8  9  1  0  0  0  0
  9  5  1  0  0  0  0
  8 10  2  0  0  0  0
  7 11  2  0  0  0  0
 11 12  1  0  0  0  0
 12 13  1  0  0  0  0
 13 14  2  0  0  0  0
 14 15  1  0  0  0  0
 15 11  1  0  0  0  0
 13 16  1  0  0  0  0
 16 17  2  0  0  0  0
 17 18  1  0  0  0  0
 18 19  2  0  0  0  0
 19 14  1  0  0  0  0
 15 20  2  0  0  0  0
M  END
>  <Mol_ID> (127)
527

>  <Formula> (127)
C16H10N2O2

>  <MolWeight> (127)
262.2628

>  <Cat> (127)
S2386

>  <Name> (127)
Indirubin

>  <Synonyms> (127)
N/A

>  <Target> (127)
GSK-3

>  <Form> (127)
Free Base

>  <CAS> (127)
479-41-4 

>  <URL> (127)
http://www.selleckchem.com/products/Indirubin.html

$$$$
Quercetin.cdx
csChFnd80/05071909292D

 22 24  0  0  0  0  0  0  0  0999 V2000
    1.2082    3.4951    0.0000 C   0  0  0  0  0  0  0  0  0  0  0  0
    1.2082    2.0951    0.0000 C   0  0  0  0  0  0  0  0  0  0  0  0
    2.4207    1.3951    0.0000 C   0  0  0  0  0  0  0  0  0  0  0  0
    3.6331    2.0951    0.0000 C   0  0  0  0  0  0  0  0  0  0  0  0
    3.6331    3.4951    0.0000 C   0  0  0  0  0  0  0  0  0  0  0  0
    2.4207    4.1951    0.0000 C   0  0  0  0  0  0  0  0  0  0  0  0
    4.8455    1.3951    0.0000 C   0  0  0  0  0  0  0  0  0  0  0  0
    6.0580    2.0951    0.0000 C   0  0  0  0  0  0  0  0  0  0  0  0
    6.0580    3.4951    0.0000 C   0  0  0  0  0  0  0  0  0  0  0  0
    4.8455    4.1951    0.0000 O   0  0  0  0  0  0  0  0  0  0  0  0
    0.0000    4.1927    0.0000 O   0  0  0  0  0  0  0  0  0  0  0  0
    2.4207    0.0000    0.0000 O   0  0  0  0  0  0  0  0  0  0  0  0
    4.8455    0.0000    0.0000 O   0  0  0  0  0  0  0  0  0  0  0  0
    7.2662    1.3976    0.0000 O   0  0  0  0  0  0  0  0  0  0  0  0
    7.2662    4.1927    0.0000 C   0  0  0  0  0  0  0  0  0  0  0  0
    8.4786    3.4927    0.0000 C   0  0  0  0  0  0  0  0  0  0  0  0
    9.6911    4.1927    0.0000 C   0  0  0  0  0  0  0  0  0  0  0  0
    9.6911    5.5927    0.0000 C   0  0  0  0  0  0  0  0  0  0  0  0
    8.4786    6.2927    0.0000 C   0  0  0  0  0  0  0  0  0  0  0  0
    7.2662    5.5927    0.0000 C   0  0  0  0  0  0  0  0  0  0  0  0
    8.4786    7.6879    0.0000 O   0  0  0  0  0  0  0  0  0  0  0  0
   10.8993    6.2903    0.0000 O   0  0  0  0  0  0  0  0  0  0  0  0
  1  2  2  0  0  0  0
  2  3  1  0  0  0  0
  3  4  2  0  0  0  0
  4  5  1  0  0  0  0
  5  6  2  0  0  0  0
  6  1  1  0  0  0  0
  4  7  1  0  0  0  0
  7  8  1  0  0  0  0
  8  9  2  0  0  0  0
  9 10  1  0  0  0  0
 10  5  1  0  0  0  0
  1 11  1  0  0  0  0
  3 12  1  0  0  0  0
  7 13  2  0  0  0  0
  8 14  1  0  0  0  0
  9 15  1  0  0  0  0
 15 16  2  0  0  0  0
 16 17  1  0  0  0  0
 17 18  2  0  0  0  0
 18 19  1  0  0  0  0
 19 20  2  0  0  0  0
 20 15  1  0  0  0  0
 19 21  1  0  0  0  0
 18 22  1  0  0  0  0
M  END
>  <Mol_ID> (128)
532

>  <Formula> (128)
C15H10O7

>  <MolWeight> (128)
302.2357

>  <Cat> (128)
S2391

>  <Name> (128)
Quercetin (Sophoretin)

>  <Synonyms> (128)
Meletin, Quercetine

>  <Target> (128)
PI3K, PKC, Src, Sirtuin

>  <Form> (128)
Free Base

>  <CAS> (128)
117-39-5

>  <URL> (128)
http://www.selleckchem.com/products/Quercetin(Sophoretin).html

$$$$
E7080.cdx
csChFnd80/05071909292D

 30 33  0  0  0  0  0  0  0  0999 V2000
    3.6321    6.3323    0.0000 C   0  0  0  0  0  0  0  0  0  0  0  0
    2.4132    5.6434    0.0000 C   0  0  0  0  0  0  0  0  0  0  0  0
    2.4025    4.2398    0.0000 C   0  0  0  0  0  0  0  0  0  0  0  0
    3.6106    3.5323    0.0000 C   0  0  0  0  0  0  0  0  0  0  0  0
    4.8273    4.2248    0.0000 C   0  0  0  0  0  0  0  0  0  0  0  0
    4.8359    5.6248    0.0000 C   0  0  0  0  0  0  0  0  0  0  0  0
    3.6020    2.1323    0.0000 N   0  0  0  0  0  0  0  0  0  0  0  0
    4.8101    1.4249    0.0000 C   0  0  0  0  0  0  0  0  0  0  0  0
    6.0268    2.1174    0.0000 C   0  0  0  0  0  0  0  0  0  0  0  0
    6.0375    3.5137    0.0000 C   0  0  0  0  0  0  0  0  0  0  0  0
    1.2050    6.3410    0.0000 O   0  0  0  0  0  0  0  0  0  0  0  0
    0.0000    5.6453    0.0000 C   0  0  0  0  0  0  0  0  0  0  0  0
    3.6321    7.7274    0.0000 C   0  0  0  0  0  0  0  0  0  0  0  0
    4.8436    8.4268    0.0000 N   0  0  0  0  0  0  0  0  0  0  0  0
    2.4271    8.4231    0.0000 O   0  0  0  0  0  0  0  0  0  0  0  0
    7.2458    4.2112    0.0000 O   0  0  0  0  0  0  0  0  0  0  0  0
    8.4572    3.5118    0.0000 C   0  0  0  0  0  0  0  0  0  0  0  0
    8.4432    2.1026    0.0000 C   0  0  0  0  0  0  0  0  0  0  0  0
    9.6470    1.3951    0.0000 C   0  0  0  0  0  0  0  0  0  0  0  0
   10.8659    2.0839    0.0000 C   0  0  0  0  0  0  0  0  0  0  0  0
   10.8766    3.4876    0.0000 C   0  0  0  0  0  0  0  0  0  0  0  0
    9.6685    4.1951    0.0000 C   0  0  0  0  0  0  0  0  0  0  0  0
    9.6470    0.0000    0.0000 Cl  0  0  0  0  0  0  0  0  0  0  0  0
   12.0741    1.3864    0.0000 N   0  0  0  0  0  0  0  0  0  0  0  0
   13.2791    2.0821    0.0000 C   0  0  0  0  0  0  0  0  0  0  0  0
   14.4954    1.3799    0.0000 O   0  0  0  0  0  0  0  0  0  0  0  0
   13.2791    3.4679    0.0000 N   0  0  0  0  0  0  0  0  0  0  0  0
   14.4978    4.1715    0.0000 C   0  0  0  0  0  0  0  0  0  0  0  0
   15.9055    4.1494    0.0000 C   0  0  0  0  0  0  0  0  0  0  0  0
   15.2130    5.3661    0.0000 C   0  0  0  0  0  0  0  0  0  0  0  0
  1  2  2  0  0  0  0
  2  3  1  0  0  0  0
  3  4  2  0  0  0  0
  4  5  1  0  0  0  0
  5  6  2  0  0  0  0
  6  1  1  0  0  0  0
  4  7  1  0  0  0  0
  7  8  2  0  0  0  0
  8  9  1  0  0  0  0
  9 10  2  0  0  0  0
 10  5  1  0  0  0  0
  2 11  1  0  0  0  0
 11 12  1  0  0  0  0
  1 13  1  0  0  0  0
 13 14  1  0  0  0  0
 13 15  2  0  0  0  0
 10 16  1  0  0  0  0
 16 17  1  0  0  0  0
 17 18  2  0  0  0  0
 18 19  1  0  0  0  0
 19 20  2  0  0  0  0
 20 21  1  0  0  0  0
 21 22  2  0  0  0  0
 22 17  1  0  0  0  0
 19 23  1  0  0  0  0
 20 24  1  0  0  0  0
 24 25  1  0  0  0  0
 25 26  2  0  0  0  0
 25 27  1  0  0  0  0
 27 28  1  0  0  0  0
 28 29  1  0  0  0  0
 29 30  1  0  0  0  0
 30 28  1  0  0  0  0
M  END
>  <Mol_ID> (129)
548

>  <Formula> (129)
C21H19ClN4O4

>  <MolWeight> (129)
426.85296

>  <Cat> (129)
S1164 

>  <Name> (129)
E7080 (Lenvatinib)

>  <Synonyms> (129)
N/A

>  <Target> (129)
VEGFR

>  <Form> (129)
Free Base

>  <CAS> (129)
417716-92-8

>  <URL> (129)
http://www.selleckchem.com/products/E7080.html

$$$$
AZD8330.cdx
csChFnd80/05071909292D

 25 26  0  0  0  0  0  0  0  0999 V2000
    1.2082    3.4951    0.0000 C   0  0  0  0  0  0  0  0  0  0  0  0
    1.2082    2.0951    0.0000 C   0  0  0  0  0  0  0  0  0  0  0  0
    2.4207    1.3951    0.0000 C   0  0  0  0  0  0  0  0  0  0  0  0
    3.6331    2.0951    0.0000 C   0  0  0  0  0  0  0  0  0  0  0  0
    3.6331    3.4951    0.0000 C   0  0  0  0  0  0  0  0  0  0  0  0
    2.4207    4.1951    0.0000 C   0  0  0  0  0  0  0  0  0  0  0  0
    0.0000    1.3976    0.0000 I   0  0  0  0  0  0  0  0  0  0  0  0
    2.4207    5.5903    0.0000 F   0  0  0  0  0  0  0  0  0  0  0  0
    4.8413    4.1927    0.0000 N   0  0  0  0  0  0  0  0  0  0  0  0
    6.0496    3.4951    0.0000 C   0  0  0  0  0  0  0  0  0  0  0  0
    6.0496    2.0951    0.0000 N   0  0  0  0  0  0  0  0  0  0  0  0
    7.2620    1.3951    0.0000 C   0  0  0  0  0  0  0  0  0  0  0  0
    8.4744    2.0951    0.0000 C   0  0  0  0  0  0  0  0  0  0  0  0
    8.4744    3.4951    0.0000 C   0  0  0  0  0  0  0  0  0  0  0  0
    7.2620    4.1951    0.0000 C   0  0  0  0  0  0  0  0  0  0  0  0
    7.2620    5.5903    0.0000 C   0  0  0  0  0  0  0  0  0  0  0  0
    9.6827    1.3976    0.0000 C   0  0  0  0  0  0  0  0  0  0  0  0
    7.2620    0.0000    0.0000 O   0  0  0  0  0  0  0  0  0  0  0  0
    4.8413    1.3976    0.0000 C   0  0  0  0  0  0  0  0  0  0  0  0
    8.4702    6.2879    0.0000 N   0  0  0  0  0  0  0  0  0  0  0  0
    9.6784    5.5903    0.0000 O   0  0  0  0  0  0  0  0  0  0  0  0
   10.8867    6.2879    0.0000 C   0  0  0  0  0  0  0  0  0  0  0  0
   12.0991    5.5879    0.0000 C   0  0  0  0  0  0  0  0  0  0  0  0
   13.3116    6.2879    0.0000 O   0  0  0  0  0  0  0  0  0  0  0  0
    6.0538    6.2879    0.0000 O   0  0  0  0  0  0  0  0  0  0  0  0
  1  2  2  0  0  0  0
  2  3  1  0  0  0  0
  3  4  2  0  0  0  0
  4  5  1  0  0  0  0
  5  6  2  0  0  0  0
  6  1  1  0  0  0  0
  2  7  1  0  0  0  0
  6  8  1  0  0  0  0
  5  9  1  0  0  0  0
  9 10  1  0  0  0  0
 10 11  1  0  0  0  0
 11 12  1  0  0  0  0
 12 13  1  0  0  0  0
 13 14  2  0  0  0  0
 14 15  1  0  0  0  0
 15 10  2  0  0  0  0
 15 16  1  0  0  0  0
 13 17  1  0  0  0  0
 12 18  2  0  0  0  0
 11 19  1  0  0  0  0
 16 20  1  0  0  0  0
 20 21  1  0  0  0  0
 21 22  1  0  0  0  0
 22 23  1  0  0  0  0
 23 24  1  0  0  0  0
 16 25  2  0  0  0  0
M  END
>  <Mol_ID> (130)
549

>  <Formula> (130)
C16H17FIN3O4

>  <MolWeight> (130)
461.2267532

>  <Cat> (130)
S2134

>  <Name> (130)
AZD8330

>  <Synonyms> (130)
N/A 

>  <Target> (130)
MEK

>  <Form> (130)
Free Base

>  <CAS> (130)
869357-68-6

>  <URL> (130)
http://www.selleckchem.com/products/AZD8330(ARRY-424704).html

$$$$
KW2449.cdx
csChFnd80/05071909292D

 25 28  0  0  0  0  0  0  0  0999 V2000
    0.0000    3.4686    0.0000 C   0  0  0  0  0  0  0  0  0  0  0  0
    0.0000    2.0686    0.0000 C   0  0  0  0  0  0  0  0  0  0  0  0
    1.2124    1.3686    0.0000 C   0  0  0  0  0  0  0  0  0  0  0  0
    2.4249    2.0686    0.0000 C   0  0  0  0  0  0  0  0  0  0  0  0
    2.4249    3.4686    0.0000 C   0  0  0  0  0  0  0  0  0  0  0  0
    1.2124    4.1686    0.0000 C   0  0  0  0  0  0  0  0  0  0  0  0
    3.4653    4.4054    0.0000 C   0  0  0  0  0  0  0  0  0  0  0  0
    2.8958    5.6843    0.0000 N   0  0  0  0  0  0  0  0  0  0  0  0
    1.5035    5.5380    0.0000 N   0  0  0  0  0  0  0  0  0  0  0  0
    4.8299    4.1153    0.0000 C   0  0  0  0  0  0  0  0  0  0  0  0
    5.7635    5.1521    0.0000 C   0  0  0  0  0  0  0  0  0  0  0  0
    7.1281    4.8620    0.0000 C   0  0  0  0  0  0  0  0  0  0  0  0
    7.5607    3.5306    0.0000 C   0  0  0  0  0  0  0  0  0  0  0  0
    8.9301    3.2395    0.0000 C   0  0  0  0  0  0  0  0  0  0  0  0
    9.8669    4.2799    0.0000 C   0  0  0  0  0  0  0  0  0  0  0  0
    9.4343    5.6114    0.0000 C   0  0  0  0  0  0  0  0  0  0  0  0
    8.0649    5.9024    0.0000 C   0  0  0  0  0  0  0  0  0  0  0  0
   11.2316    3.9898    0.0000 C   0  0  0  0  0  0  0  0  0  0  0  0
   12.1651    5.0266    0.0000 O   0  0  0  0  0  0  0  0  0  0  0  0
   11.6627    2.6630    0.0000 N   0  0  0  0  0  0  0  0  0  0  0  0
   10.7259    1.6226    0.0000 C   0  0  0  0  0  0  0  0  0  0  0  0
   11.1585    0.2911    0.0000 C   0  0  0  0  0  0  0  0  0  0  0  0
   12.5279    0.0000    0.0000 N   0  0  0  0  0  0  0  0  0  0  0  0
   13.4647    1.0404    0.0000 C   0  0  0  0  0  0  0  0  0  0  0  0
   13.0321    2.3719    0.0000 C   0  0  0  0  0  0  0  0  0  0  0  0
  1  2  2  0  0  0  0
  2  3  1  0  0  0  0
  3  4  2  0  0  0  0
  4  5  1  0  0  0  0
  5  6  2  0  0  0  0
  6  1  1  0  0  0  0
  5  7  1  0  0  0  0
  7  8  2  0  0  0  0
  8  9  1  0  0  0  0
  9  6  1  0  0  0  0
  7 10  1  0  0  0  0
 10 11  2  0  0  0  0
 11 12  1  0  0  0  0
 12 13  2  0  0  0  0
 13 14  1  0  0  0  0
 14 15  2  0  0  0  0
 15 16  1  0  0  0  0
 16 17  2  0  0  0  0
 17 12  1  0  0  0  0
 15 18  1  0  0  0  0
 18 19  2  0  0  0  0
 18 20  1  0  0  0  0
 20 21  1  0  0  0  0
 21 22  1  0  0  0  0
 22 23  1  0  0  0  0
 23 24  1  0  0  0  0
 24 25  1  0  0  0  0
 25 20  1  0  0  0  0
M  END
>  <Mol_ID> (131)
562

>  <Formula> (131)
C20H20N4O

>  <MolWeight> (131)
332.399

>  <Cat> (131)
S2158

>  <Name> (131)
KW 2449

>  <Synonyms> (131)
N/A

>  <Target> (131)
Flt, Bcr-Abl, Aurora Kinase

>  <Form> (131)
Free Base

>  <CAS> (131)
1000669-72-6

>  <URL> (131)
http://www.selleckchem.com/products/KW-2449.html

$$$$
raf265.cdx
csChFnd80/05071909292D

 37 41  0  0  0  0  0  0  0  0999 V2000
    7.7422    6.7580    0.0000 C   0  0  0  0  0  0  0  0  0  0  0  0
    7.7422    5.3580    0.0000 C   0  0  0  0  0  0  0  0  0  0  0  0
    8.9547    4.6580    0.0000 C   0  0  0  0  0  0  0  0  0  0  0  0
   10.1671    5.3580    0.0000 C   0  0  0  0  0  0  0  0  0  0  0  0
   10.1671    6.7580    0.0000 C   0  0  0  0  0  0  0  0  0  0  0  0
    8.9547    7.4580    0.0000 C   0  0  0  0  0  0  0  0  0  0  0  0
    6.4108    7.1906    0.0000 N   0  0  0  0  0  0  0  0  0  0  0  0
    5.5879    6.0580    0.0000 C   0  0  0  0  0  0  0  0  0  0  0  0
    6.4108    4.9253    0.0000 N   0  0  0  0  0  0  0  0  0  0  0  0
   11.3753    7.4555    0.0000 O   0  0  0  0  0  0  0  0  0  0  0  0
   12.5836    6.7580    0.0000 C   0  0  0  0  0  0  0  0  0  0  0  0
   12.5836    5.3580    0.0000 C   0  0  0  0  0  0  0  0  0  0  0  0
   13.7960    4.6580    0.0000 C   0  0  0  0  0  0  0  0  0  0  0  0
   15.0084    5.3580    0.0000 N   0  0  0  0  0  0  0  0  0  0  0  0
   15.0084    6.7580    0.0000 C   0  0  0  0  0  0  0  0  0  0  0  0
   13.7960    7.4580    0.0000 C   0  0  0  0  0  0  0  0  0  0  0  0
    4.1927    6.0580    0.0000 N   0  0  0  0  0  0  0  0  0  0  0  0
    3.4927    4.8455    0.0000 C   0  0  0  0  0  0  0  0  0  0  0  0
    2.0927    4.8455    0.0000 C   0  0  0  0  0  0  0  0  0  0  0  0
    1.3927    3.6331    0.0000 C   0  0  0  0  0  0  0  0  0  0  0  0
    2.0927    2.4207    0.0000 C   0  0  0  0  0  0  0  0  0  0  0  0
    3.4927    2.4207    0.0000 C   0  0  0  0  0  0  0  0  0  0  0  0
    4.1927    3.6331    0.0000 C   0  0  0  0  0  0  0  0  0  0  0  0
    1.3951    1.2124    0.0000 C   0  0  0  0  0  0  0  0  0  0  0  0
    2.0927    0.0042    0.0000 F   0  0  0  0  0  0  0  0  0  0  0  0
    0.0000    1.2124    0.0000 F   0  0  0  0  0  0  0  0  0  0  0  0
    0.6951    0.0000    0.0000 F   0  0  0  0  0  0  0  0  0  0  0  0
   16.2167    7.4555    0.0000 C   0  0  0  0  0  0  0  0  0  0  0  0
   17.4956    6.8861    0.0000 N   0  0  0  0  0  0  0  0  0  0  0  0
   18.4324    7.9265    0.0000 C   0  0  0  0  0  0  0  0  0  0  0  0
   17.7324    9.1389    0.0000 C   0  0  0  0  0  0  0  0  0  0  0  0
   16.3630    8.8479    0.0000 N   0  0  0  0  0  0  0  0  0  0  0  0
   19.8199    7.7807    0.0000 C   0  0  0  0  0  0  0  0  0  0  0  0
   20.6399    8.9094    0.0000 F   0  0  0  0  0  0  0  0  0  0  0  0
   20.3874    6.5062    0.0000 F   0  0  0  0  0  0  0  0  0  0  0  0
   21.2199    7.7807    0.0000 F   0  0  0  0  0  0  0  0  0  0  0  0
    5.9796    3.5985    0.0000 C   0  0  0  0  0  0  0  0  0  0  0  0
  1  2  2  0  0  0  0
  2  3  1  0  0  0  0
  3  4  2  0  0  0  0
  4  5  1  0  0  0  0
  5  6  2  0  0  0  0
  6  1  1  0  0  0  0
  1  7  1  0  0  0  0
  7  8  2  0  0  0  0
  8  9  1  0  0  0  0
  9  2  1  0  0  0  0
  5 10  1  0  0  0  0
 10 11  1  0  0  0  0
 11 12  2  0  0  0  0
 12 13  1  0  0  0  0
 13 14  2  0  0  0  0
 14 15  1  0  0  0  0
 15 16  2  0  0  0  0
 16 11  1  0  0  0  0
  8 17  1  0  0  0  0
 17 18  1  0  0  0  0
 18 19  2  0  0  0  0
 19 20  1  0  0  0  0
 20 21  2  0  0  0  0
 21 22  1  0  0  0  0
 22 23  2  0  0  0  0
 23 18  1  0  0  0  0
 21 24  1  0  0  0  0
 24 25  1  0  0  0  0
 24 26  1  0  0  0  0
 24 27  1  0  0  0  0
 15 28  1  0  0  0  0
 28 29  1  0  0  0  0
 29 30  1  0  0  0  0
 30 31  2  0  0  0  0
 31 32  1  0  0  0  0
 32 28  2  0  0  0  0
 30 33  1  0  0  0  0
 33 34  1  0  0  0  0
 33 35  1  0  0  0  0
 33 36  1  0  0  0  0
  9 37  1  0  0  0  0
M  END
>  <Mol_ID> (132)
564

>  <Formula> (132)
C24H16F6N6O

>  <MolWeight> (132)
518.4138592

>  <Cat> (132)
S2161

>  <Name> (132)
RAF265 (CHIR-265)

>  <Synonyms> (132)
N/A 

>  <Target> (132)
Raf, VEGFR

>  <Form> (132)
Free Base

>  <CAS> (132)
927880-90-8

>  <URL> (132)
http://www.selleckchem.com/products/RAF265(CHIR-265).html

$$$$
Daphnetin.cdx
csChFnd80/05071909292D

 13 14  0  0  0  0  0  0  0  0999 V2000
    1.2082    2.1000    0.0000 C   0  0  0  0  0  0  0  0  0  0  0  0
    1.2082    0.7000    0.0000 C   0  0  0  0  0  0  0  0  0  0  0  0
    2.4207    0.0000    0.0000 C   0  0  0  0  0  0  0  0  0  0  0  0
    3.6331    0.7000    0.0000 C   0  0  0  0  0  0  0  0  0  0  0  0
    3.6331    2.1000    0.0000 C   0  0  0  0  0  0  0  0  0  0  0  0
    2.4207    2.8000    0.0000 C   0  0  0  0  0  0  0  0  0  0  0  0
    4.8455    0.0000    0.0000 C   0  0  0  0  0  0  0  0  0  0  0  0
    6.0580    0.7000    0.0000 C   0  0  0  0  0  0  0  0  0  0  0  0
    6.0580    2.1000    0.0000 C   0  0  0  0  0  0  0  0  0  0  0  0
    4.8455    2.8000    0.0000 O   0  0  0  0  0  0  0  0  0  0  0  0
    0.0000    2.7976    0.0000 O   0  0  0  0  0  0  0  0  0  0  0  0
    2.4207    4.1951    0.0000 O   0  0  0  0  0  0  0  0  0  0  0  0
    7.2662    2.7976    0.0000 O   0  0  0  0  0  0  0  0  0  0  0  0
  1  2  2  0  0  0  0
  2  3  1  0  0  0  0
  3  4  2  0  0  0  0
  4  5  1  0  0  0  0
  5  6  2  0  0  0  0
  6  1  1  0  0  0  0
  4  7  1  0  0  0  0
  7  8  2  0  0  0  0
  8  9  1  0  0  0  0
  9 10  1  0  0  0  0
 10  5  1  0  0  0  0
  1 11  1  0  0  0  0
  6 12  1  0  0  0  0
  9 13  2  0  0  0  0
M  END
>  <Mol_ID> (133)
566

>  <Formula> (133)
C9H6O4

>  <MolWeight> (133)
178.14154

>  <Cat> (133)
S2554 

>  <Name> (133)
Daphnetin

>  <Synonyms> (133)
N/A 

>  <Target> (133)
DNA/RNA Synthesis

>  <Form> (133)
Free Base

>  <CAS> (133)
486-35-1

>  <URL> (133)
http://www.selleckchem.com/products/Daphnetin.html

$$$$
LY2784544.cdx
csChFnd80/05071909292D

 33 37  0  0  0  0  0  0  0  0999 V2000
    6.0197    7.3139    0.0000 C   0  0  0  0  0  0  0  0  0  0  0  0
    6.0197    5.9139    0.0000 C   0  0  0  0  0  0  0  0  0  0  0  0
    7.2321    5.2139    0.0000 N   0  0  0  0  0  0  0  0  0  0  0  0
    8.4446    5.9139    0.0000 N   0  0  0  0  0  0  0  0  0  0  0  0
    8.4446    7.3139    0.0000 C   0  0  0  0  0  0  0  0  0  0  0  0
    7.2321    8.0139    0.0000 C   0  0  0  0  0  0  0  0  0  0  0  0
    9.7760    5.4812    0.0000 C   0  0  0  0  0  0  0  0  0  0  0  0
   10.5989    6.6139    0.0000 C   0  0  0  0  0  0  0  0  0  0  0  0
    9.7760    7.7465    0.0000 N   0  0  0  0  0  0  0  0  0  0  0  0
    7.2321    9.4090    0.0000 C   0  0  0  0  0  0  0  0  0  0  0  0
    6.0197   10.1090    0.0000 N   0  0  0  0  0  0  0  0  0  0  0  0
    6.0197   11.5090    0.0000 C   0  0  0  0  0  0  0  0  0  0  0  0
    4.8073   12.2090    0.0000 C   0  0  0  0  0  0  0  0  0  0  0  0
    3.5948   11.5090    0.0000 O   0  0  0  0  0  0  0  0  0  0  0  0
    3.5948   10.1090    0.0000 C   0  0  0  0  0  0  0  0  0  0  0  0
    4.8073    9.4090    0.0000 C   0  0  0  0  0  0  0  0  0  0  0  0
    4.8115    5.2163    0.0000 N   0  0  0  0  0  0  0  0  0  0  0  0
    3.6032    5.9139    0.0000 C   0  0  0  0  0  0  0  0  0  0  0  0
    3.4569    7.3062    0.0000 N   0  0  0  0  0  0  0  0  0  0  0  0
    2.0875    7.5973    0.0000 N   0  0  0  0  0  0  0  0  0  0  0  0
    1.3875    6.3848    0.0000 C   0  0  0  0  0  0  0  0  0  0  0  0
    2.3243    5.3444    0.0000 C   0  0  0  0  0  0  0  0  0  0  0  0
    0.0000    6.2390    0.0000 C   0  0  0  0  0  0  0  0  0  0  0  0
   11.9941    6.6139    0.0000 C   0  0  0  0  0  0  0  0  0  0  0  0
   10.2072    4.1544    0.0000 C   0  0  0  0  0  0  0  0  0  0  0  0
    9.2736    3.1176    0.0000 C   0  0  0  0  0  0  0  0  0  0  0  0
    7.9042    3.4087    0.0000 C   0  0  0  0  0  0  0  0  0  0  0  0
    6.9674    2.3683    0.0000 C   0  0  0  0  0  0  0  0  0  0  0  0
    7.4001    1.0368    0.0000 C   0  0  0  0  0  0  0  0  0  0  0  0
    8.7695    0.7457    0.0000 C   0  0  0  0  0  0  0  0  0  0  0  0
    9.7063    1.7861    0.0000 C   0  0  0  0  0  0  0  0  0  0  0  0
    6.4665    0.0000    0.0000 Cl  0  0  0  0  0  0  0  0  0  0  0  0
   11.0709    1.4961    0.0000 F   0  0  0  0  0  0  0  0  0  0  0  0
  1  2  1  0  0  0  0
  2  3  2  0  0  0  0
  3  4  1  0  0  0  0
  4  5  1  0  0  0  0
  5  6  1  0  0  0  0
  6  1  2  0  0  0  0
  4  7  1  0  0  0  0
  7  8  2  0  0  0  0
  8  9  1  0  0  0  0
  9  5  2  0  0  0  0
  6 10  1  0  0  0  0
 10 11  1  0  0  0  0
 11 12  1  0  0  0  0
 12 13  1  0  0  0  0
 13 14  1  0  0  0  0
 14 15  1  0  0  0  0
 15 16  1  0  0  0  0
 16 11  1  0  0  0  0
  2 17  1  0  0  0  0
 17 18  1  0  0  0  0
 18 19  1  0  0  0  0
 19 20  1  0  0  0  0
 20 21  2  0  0  0  0
 21 22  1  0  0  0  0
 22 18  2  0  0  0  0
 21 23  1  0  0  0  0
  8 24  1  0  0  0  0
  7 25  1  0  0  0  0
 25 26  1  0  0  0  0
 26 27  2  0  0  0  0
 27 28  1  0  0  0  0
 28 29  2  0  0  0  0
 29 30  1  0  0  0  0
 30 31  2  0  0  0  0
 31 26  1  0  0  0  0
 29 32  1  0  0  0  0
 31 33  1  0  0  0  0
M  END
>  <Mol_ID> (134)
569

>  <Formula> (134)
C23H25ClFN7O

>  <MolWeight> (134)
469.9423032

>  <Cat> (134)
S2179

>  <Name> (134)
Gandotinib (LY2784544)

>  <Synonyms> (134)
N/A

>  <Target> (134)
JAK 

>  <Form> (134)
Free Base

>  <CAS> (134)
1229236-86-5

>  <URL> (134)
http://www.selleckchem.com/products/LY2784544.html

$$$$
AZD8931.cdx
csChFnd80/05071909292D

 33 36  0  0  0  0  0  0  0  0999 V2000
    9.6827    3.5000    0.0000 C   0  0  0  0  0  0  0  0  0  0  0  0
    9.6827    2.1000    0.0000 C   0  0  0  0  0  0  0  0  0  0  0  0
   10.8951    1.4000    0.0000 C   0  0  0  0  0  0  0  0  0  0  0  0
   12.1075    2.1000    0.0000 C   0  0  0  0  0  0  0  0  0  0  0  0
   12.1075    3.5000    0.0000 C   0  0  0  0  0  0  0  0  0  0  0  0
   10.8951    4.2000    0.0000 C   0  0  0  0  0  0  0  0  0  0  0  0
   13.3200    1.4000    0.0000 N   0  0  0  0  0  0  0  0  0  0  0  0
   14.5324    2.1000    0.0000 C   0  0  0  0  0  0  0  0  0  0  0  0
   14.5324    3.5000    0.0000 N   0  0  0  0  0  0  0  0  0  0  0  0
   13.3200    4.2000    0.0000 C   0  0  0  0  0  0  0  0  0  0  0  0
    8.4702    4.2000    0.0000 O   0  0  0  0  0  0  0  0  0  0  0  0
    7.2578    3.5000    0.0000 C   0  0  0  0  0  0  0  0  0  0  0  0
    7.2578    2.1000    0.0000 C   0  0  0  0  0  0  0  0  0  0  0  0
    8.4702    1.4000    0.0000 O   0  0  0  0  0  0  0  0  0  0  0  0
    6.0453    4.2000    0.0000 C   0  0  0  0  0  0  0  0  0  0  0  0
    4.8329    3.5000    0.0000 C   0  0  0  0  0  0  0  0  0  0  0  0
    4.8329    2.1000    0.0000 N   0  0  0  0  0  0  0  0  0  0  0  0
    6.0453    1.4000    0.0000 C   0  0  0  0  0  0  0  0  0  0  0  0
   15.7448    4.2000    0.0000 F   0  0  0  0  0  0  0  0  0  0  0  0
   15.7448    5.6000    0.0000 C   0  0  0  0  0  0  0  0  0  0  0  0
   14.5324    6.3000    0.0000 C   0  0  0  0  0  0  0  0  0  0  0  0
   13.3200    5.6000    0.0000 N   0  0  0  0  0  0  0  0  0  0  0  0
   16.9573    6.3000    0.0000 C   0  0  0  0  0  0  0  0  0  0  0  0
   16.9573    7.7000    0.0000 C   0  0  0  0  0  0  0  0  0  0  0  0
   15.7448    8.4000    0.0000 C   0  0  0  0  0  0  0  0  0  0  0  0
   14.5324    7.7000    0.0000 C   0  0  0  0  0  0  0  0  0  0  0  0
    3.6247    1.4024    0.0000 C   0  0  0  0  0  0  0  0  0  0  0  0
    2.4165    2.1000    0.0000 C   0  0  0  0  0  0  0  0  0  0  0  0
    1.2082    1.4024    0.0000 N   0  0  0  0  0  0  0  0  0  0  0  0
    0.0000    2.1000    0.0000 C   0  0  0  0  0  0  0  0  0  0  0  0
    2.4165    3.4951    0.0000 O   0  0  0  0  0  0  0  0  0  0  0  0
    8.4702    0.0000    0.0000 C   0  0  0  0  0  0  0  0  0  0  0  0
   18.1655    5.6024    0.0000 Cl  0  0  0  0  0  0  0  0  0  0  0  0
  1  2  2  0  0  0  0
  2  3  1  0  0  0  0
  3  4  2  0  0  0  0
  4  5  1  0  0  0  0
  5  6  2  0  0  0  0
  6  1  1  0  0  0  0
  4  7  1  0  0  0  0
  7  8  2  0  0  0  0
  8  9  1  0  0  0  0
  9 10  2  0  0  0  0
 10  5  1  0  0  0  0
  1 11  1  0  0  0  0
 11 12  1  0  0  0  0
 12 13  1  0  0  0  0
 14  2  1  0  0  0  0
 12 15  1  0  0  0  0
 15 16  1  0  0  0  0
 16 17  1  0  0  0  0
 17 18  1  0  0  0  0
 18 13  1  0  0  0  0
 19 20  1  0  0  0  0
 20 21  2  0  0  0  0
 21 22  1  0  0  0  0
 22 10  1  0  0  0  0
 20 23  1  0  0  0  0
 23 24  2  0  0  0  0
 24 25  1  0  0  0  0
 25 26  2  0  0  0  0
 26 21  1  0  0  0  0
 17 27  1  0  0  0  0
 27 28  1  0  0  0  0
 28 29  1  0  0  0  0
 29 30  1  0  0  0  0
 28 31  2  0  0  0  0
 14 32  1  0  0  0  0
 23 33  1  0  0  0  0
M  END
>  <Mol_ID> (135)
579

>  <Formula> (135)
C23H25ClFN5O3

>  <MolWeight> (135)
473.9277032

>  <Cat> (135)
S2192

>  <Name> (135)
AZD8931

>  <Synonyms> (135)
N/A

>  <Target> (135)
EGFR, HER2

>  <Form> (135)
Free Base

>  <CAS> (135)
848942-61-0

>  <URL> (135)
http://www.selleckchem.com/products/AZD8931.html

$$$$
GSK 461364.cdx
csChFnd80/05071909292D

 38 42  0  0  0  0  0  0  0  0999 V2000
    1.2082    2.1000    0.0000 C   0  0  0  0  0  0  0  0  0  0  0  0
    1.2082    0.7000    0.0000 N   0  0  0  0  0  0  0  0  0  0  0  0
    2.4207    0.0000    0.0000 C   0  0  0  0  0  0  0  0  0  0  0  0
    3.6331    0.7000    0.0000 C   0  0  0  0  0  0  0  0  0  0  0  0
    3.6331    2.1000    0.0000 N   0  0  0  0  0  0  0  0  0  0  0  0
    2.4207    2.8000    0.0000 C   0  0  0  0  0  0  0  0  0  0  0  0
    0.0000    0.0024    0.0000 C   0  0  0  0  0  0  0  0  0  0  0  0
    4.8413    2.7976    0.0000 C   0  0  0  0  0  0  0  0  0  0  0  0
    4.8413    4.1976    0.0000 C   0  0  0  0  0  0  0  0  0  0  0  0
    6.0538    4.8976    0.0000 C   0  0  0  0  0  0  0  0  0  0  0  0
    6.0538    6.2976    0.0000 C   0  0  0  0  0  0  0  0  0  0  0  0
    4.8413    6.9976    0.0000 C   0  0  0  0  0  0  0  0  0  0  0  0
    3.6289    6.2976    0.0000 C   0  0  0  0  0  0  0  0  0  0  0  0
    3.6289    4.8976    0.0000 C   0  0  0  0  0  0  0  0  0  0  0  0
    7.0942    7.2344    0.0000 N   0  0  0  0  0  0  0  0  0  0  0  0
    6.5247    8.5133    0.0000 C   0  0  0  0  0  0  0  0  0  0  0  0
    5.1324    8.3670    0.0000 N   0  0  0  0  0  0  0  0  0  0  0  0
    8.4588    6.9443    0.0000 C   0  0  0  0  0  0  0  0  0  0  0  0
    9.0283    5.6653    0.0000 C   0  0  0  0  0  0  0  0  0  0  0  0
   10.4206    5.8117    0.0000 C   0  0  0  0  0  0  0  0  0  0  0  0
   10.7117    7.1811    0.0000 C   0  0  0  0  0  0  0  0  0  0  0  0
    9.4992    7.8811    0.0000 S   0  0  0  0  0  0  0  0  0  0  0  0
   11.9862    7.7485    0.0000 C   0  0  0  0  0  0  0  0  0  0  0  0
   12.1320    9.1360    0.0000 O   0  0  0  0  0  0  0  0  0  0  0  0
   13.1149    6.9285    0.0000 N   0  0  0  0  0  0  0  0  0  0  0  0
   11.3541    4.7749    0.0000 O   0  0  0  0  0  0  0  0  0  0  0  0
   10.9230    3.4480    0.0000 C   0  0  2  0  0  0  0  0  0  0  0  0
    9.5583    3.1580    0.0000 C   0  0  0  0  0  0  0  0  0  0  0  0
   11.8565    2.4112    0.0000 C   0  0  0  0  0  0  0  0  0  0  0  0
   11.4239    1.0797    0.0000 C   0  0  0  0  0  0  0  0  0  0  0  0
   12.3607    0.0393    0.0000 C   0  0  0  0  0  0  0  0  0  0  0  0
   13.7301    0.3304    0.0000 C   0  0  0  0  0  0  0  0  0  0  0  0
   14.1627    1.6619    0.0000 C   0  0  0  0  0  0  0  0  0  0  0  0
   13.2259    2.7023    0.0000 C   0  0  0  0  0  0  0  0  0  0  0  0
   13.6571    4.0292    0.0000 C   0  0  0  0  0  0  0  0  0  0  0  0
   15.0217    4.3192    0.0000 F   0  0  0  0  0  0  0  0  0  0  0  0
   12.7235    5.0660    0.0000 F   0  0  0  0  0  0  0  0  0  0  0  0
   14.0194    5.3815    0.0000 F   0  0  0  0  0  0  0  0  0  0  0  0
  1  2  1  0  0  0  0
  2  3  1  0  0  0  0
  3  4  1  0  0  0  0
  4  5  1  0  0  0  0
  5  6  1  0  0  0  0
  6  1  1  0  0  0  0
  2  7  1  0  0  0  0
  5  8  1  0  0  0  0
  8  9  1  0  0  0  0
  9 10  2  0  0  0  0
 10 11  1  0  0  0  0
 11 12  2  0  0  0  0
 12 13  1  0  0  0  0
 13 14  2  0  0  0  0
 14  9  1  0  0  0  0
 11 15  1  0  0  0  0
 15 16  1  0  0  0  0
 16 17  2  0  0  0  0
 17 12  1  0  0  0  0
 15 18  1  0  0  0  0
 18 19  2  0  0  0  0
 19 20  1  0  0  0  0
 20 21  2  0  0  0  0
 21 22  1  0  0  0  0
 22 18  1  0  0  0  0
 21 23  1  0  0  0  0
 23 24  2  0  0  0  0
 23 25  1  0  0  0  0
 20 26  1  0  0  0  0
 26 27  1  0  0  0  0
 27 28  1  1  0  0  0
 27 29  1  0  0  0  0
 29 30  2  0  0  0  0
 30 31  1  0  0  0  0
 31 32  2  0  0  0  0
 32 33  1  0  0  0  0
 33 34  2  0  0  0  0
 34 29  1  0  0  0  0
 34 35  1  0  0  0  0
 35 36  1  0  0  0  0
 35 37  1  0  0  0  0
 35 38  1  0  0  0  0
M  END
>  <Mol_ID> (136)
580

>  <Formula> (136)
C27H28F3N5O2S

>  <MolWeight> (136)
543.6037296

>  <Cat> (136)
S2193

>  <Name> (136)
GSK461364

>  <Synonyms> (136)
N/A

>  <Target> (136)
PLK

>  <Form> (136)
Free Base

>  <CAS> (136)
929095-18-1

>  <URL> (136)
http://www.selleckchem.com/products/GSK461364.html

$$$$
R406.cdx
csChFnd80/05071909292D

 44 47  0  0  0  0  0  0  0  0999 V2000
    2.4207    4.3604    0.0000 C   0  0  0  0  0  0  0  0  0  0  0  0
    2.4207    2.9604    0.0000 C   0  0  0  0  0  0  0  0  0  0  0  0
    3.6331    2.2604    0.0000 C   0  0  0  0  0  0  0  0  0  0  0  0
    4.8455    2.9604    0.0000 C   0  0  0  0  0  0  0  0  0  0  0  0
    4.8455    4.3604    0.0000 C   0  0  0  0  0  0  0  0  0  0  0  0
    3.6331    5.0604    0.0000 C   0  0  0  0  0  0  0  0  0  0  0  0
    1.2124    5.0580    0.0000 O   0  0  0  0  0  0  0  0  0  0  0  0
    0.0000    4.3580    0.0000 C   0  0  0  0  0  0  0  0  0  0  0  0
    1.2124    2.2629    0.0000 O   0  0  0  0  0  0  0  0  0  0  0  0
    0.0000    2.9629    0.0000 C   0  0  0  0  0  0  0  0  0  0  0  0
    3.6331    6.4556    0.0000 O   0  0  0  0  0  0  0  0  0  0  0  0
    4.8413    7.1531    0.0000 C   0  0  0  0  0  0  0  0  0  0  0  0
    6.0538    2.2629    0.0000 N   0  0  0  0  0  0  0  0  0  0  0  0
    7.2620    2.9604    0.0000 C   0  0  0  0  0  0  0  0  0  0  0  0
    8.4744    2.2604    0.0000 N   0  0  0  0  0  0  0  0  0  0  0  0
    9.6869    2.9604    0.0000 C   0  0  0  0  0  0  0  0  0  0  0  0
    9.6869    4.3604    0.0000 C   0  0  0  0  0  0  0  0  0  0  0  0
    8.4744    5.0604    0.0000 C   0  0  0  0  0  0  0  0  0  0  0  0
    7.2620    4.3604    0.0000 N   0  0  0  0  0  0  0  0  0  0  0  0
   10.8951    5.0580    0.0000 F   0  0  0  0  0  0  0  0  0  0  0  0
   10.8951    2.2629    0.0000 N   0  0  0  0  0  0  0  0  0  0  0  0
   12.1075    2.9629    0.0000 C   0  0  0  0  0  0  0  0  0  0  0  0
   13.3200    2.2629    0.0000 N   0  0  0  0  0  0  0  0  0  0  0  0
   14.5324    2.9629    0.0000 C   0  0  0  0  0  0  0  0  0  0  0  0
   14.5324    4.3629    0.0000 C   0  0  0  0  0  0  0  0  0  0  0  0
   13.3200    5.0629    0.0000 C   0  0  0  0  0  0  0  0  0  0  0  0
   12.1075    4.3629    0.0000 C   0  0  0  0  0  0  0  0  0  0  0  0
   15.7448    2.2629    0.0000 N   0  0  0  0  0  0  0  0  0  0  0  0
   16.9573    2.9629    0.0000 C   0  0  0  0  0  0  0  0  0  0  0  0
   16.9573    4.3629    0.0000 C   0  0  0  0  0  0  0  0  0  0  0  0
   15.7448    5.0629    0.0000 O   0  0  0  0  0  0  0  0  0  0  0  0
   18.1655    5.0604    0.0000 C   0  0  0  0  0  0  0  0  0  0  0  0
   17.3196    5.7151    0.0000 C   0  0  0  0  0  0  0  0  0  0  0  0
   18.1655    2.2653    0.0000 O   0  0  0  0  0  0  0  0  0  0  0  0
   20.7957    2.1000    0.0000 C   0  0  0  0  0  0  0  0  0  0  0  0
   20.7957    0.7000    0.0000 C   0  0  0  0  0  0  0  0  0  0  0  0
   22.0081    0.0000    0.0000 C   0  0  0  0  0  0  0  0  0  0  0  0
   23.2205    0.7000    0.0000 C   0  0  0  0  0  0  0  0  0  0  0  0
   23.2205    2.1000    0.0000 C   0  0  0  0  0  0  0  0  0  0  0  0
   22.0081    2.8000    0.0000 C   0  0  0  0  0  0  0  0  0  0  0  0
   24.4288    2.7976    0.0000 S   0  0  0  0  0  0  0  0  0  0  0  0
   25.6412    3.4976    0.0000 O   0  0  0  0  0  0  0  0  0  0  0  0
   23.7312    4.0058    0.0000 O   0  0  0  0  0  0  0  0  0  0  0  0
   25.1288    1.5851    0.0000 O   0  0  0  0  0  0  0  0  0  0  0  0
  1  2  2  0  0  0  0
  2  3  1  0  0  0  0
  3  4  2  0  0  0  0
  4  5  1  0  0  0  0
  5  6  2  0  0  0  0
  6  1  1  0  0  0  0
  1  7  1  0  0  0  0
  7  8  1  0  0  0  0
  2  9  1  0  0  0  0
  9 10  1  0  0  0  0
  6 11  1  0  0  0  0
 11 12  1  0  0  0  0
  4 13  1  0  0  0  0
 13 14  1  0  0  0  0
 14 15  2  0  0  0  0
 15 16  1  0  0  0  0
 16 17  2  0  0  0  0
 17 18  1  0  0  0  0
 18 19  2  0  0  0  0
 19 14  1  0  0  0  0
 17 20  1  0  0  0  0
 16 21  1  0  0  0  0
 21 22  1  0  0  0  0
 22 23  2  0  0  0  0
 23 24  1  0  0  0  0
 24 25  2  0  0  0  0
 25 26  1  0  0  0  0
 26 27  2  0  0  0  0
 27 22  1  0  0  0  0
 24 28  1  0  0  0  0
 28 29  1  0  0  0  0
 29 30  1  0  0  0  0
 30 31  1  0  0  0  0
 31 25  1  0  0  0  0
 30 32  1  0  0  0  0
 30 33  1  0  0  0  0
 29 34  2  0  0  0  0
 35 36  2  0  0  0  0
 36 37  1  0  0  0  0
 37 38  2  0  0  0  0
 38 39  1  0  0  0  0
 39 40  2  0  0  0  0
 40 35  1  0  0  0  0
 39 41  1  0  0  0  0
 41 42  1  0  0  0  0
 41 43  2  0  0  0  0
 41 44  2  0  0  0  0
M  END
>  <Mol_ID> (137)
581

>  <Formula> (137)
C28H29FN6O8S

>  <MolWeight> (137)
628.6286632

>  <Cat> (137)
S2194 

>  <Name> (137)
R406

>  <Synonyms> (137)
N/A

>  <Target> (137)
Syk, Flt

>  <Form> (137)
Besylate

>  <CAS> (137)
841290-81-1

>  <URL> (137)
http://www.selleckchem.com/products/R406.html

$$$$
SGI 1776 free base.cdx
csChFnd80/05071909292D

 29 32  0  0  0  0  0  0  0  0999 V2000
    7.2746    7.7407    0.0000 C   0  0  0  0  0  0  0  0  0  0  0  0
    7.2746    6.3407    0.0000 C   0  0  0  0  0  0  0  0  0  0  0  0
    8.4870    5.6407    0.0000 N   0  0  0  0  0  0  0  0  0  0  0  0
    9.6995    6.3407    0.0000 N   0  0  0  0  0  0  0  0  0  0  0  0
    9.6995    7.7407    0.0000 C   0  0  0  0  0  0  0  0  0  0  0  0
    8.4870    8.4407    0.0000 C   0  0  0  0  0  0  0  0  0  0  0  0
   11.0310    8.1733    0.0000 N   0  0  0  0  0  0  0  0  0  0  0  0
   11.8539    7.0407    0.0000 C   0  0  0  0  0  0  0  0  0  0  0  0
   11.0310    5.9081    0.0000 C   0  0  0  0  0  0  0  0  0  0  0  0
   11.4636    4.5766    0.0000 C   0  0  0  0  0  0  0  0  0  0  0  0
   10.5268    3.5362    0.0000 C   0  0  0  0  0  0  0  0  0  0  0  0
   10.9594    2.2047    0.0000 C   0  0  0  0  0  0  0  0  0  0  0  0
   12.3288    1.9136    0.0000 C   0  0  0  0  0  0  0  0  0  0  0  0
   13.2656    2.9540    0.0000 C   0  0  0  0  0  0  0  0  0  0  0  0
   12.8330    4.2855    0.0000 C   0  0  0  0  0  0  0  0  0  0  0  0
   14.6350    2.6630    0.0000 O   0  0  0  0  0  0  0  0  0  0  0  0
   15.0676    1.3315    0.0000 C   0  0  0  0  0  0  0  0  0  0  0  0
   16.3991    1.7641    0.0000 F   0  0  0  0  0  0  0  0  0  0  0  0
   15.5003    0.0000    0.0000 F   0  0  0  0  0  0  0  0  0  0  0  0
   13.7362    0.8989    0.0000 F   0  0  0  0  0  0  0  0  0  0  0  0
    6.0622    5.6407    0.0000 N   0  0  0  0  0  0  0  0  0  0  0  0
    4.8497    6.3407    0.0000 C   0  0  0  0  0  0  0  0  0  0  0  0
    3.6373    5.6407    0.0000 C   0  0  0  0  0  0  0  0  0  0  0  0
    2.4249    6.3407    0.0000 C   0  0  0  0  0  0  0  0  0  0  0  0
    1.2124    5.6407    0.0000 C   0  0  0  0  0  0  0  0  0  0  0  0
    1.2124    4.2407    0.0000 N   0  0  0  0  0  0  0  0  0  0  0  0
    2.4249    3.5407    0.0000 C   0  0  0  0  0  0  0  0  0  0  0  0
    3.6373    4.2407    0.0000 C   0  0  0  0  0  0  0  0  0  0  0  0
    0.0000    3.5407    0.0000 C   0  0  0  0  0  0  0  0  0  0  0  0
  1  2  1  0  0  0  0
  2  3  2  0  0  0  0
  3  4  1  0  0  0  0
  4  5  1  0  0  0  0
  5  6  1  0  0  0  0
  6  1  2  0  0  0  0
  5  7  2  0  0  0  0
  7  8  1  0  0  0  0
  4  9  1  0  0  0  0
  8  9  2  0  0  0  0
  9 10  1  0  0  0  0
 10 11  2  0  0  0  0
 11 12  1  0  0  0  0
 12 13  2  0  0  0  0
 13 14  1  0  0  0  0
 14 15  2  0  0  0  0
 15 10  1  0  0  0  0
 14 16  1  0  0  0  0
  2 21  1  0  0  0  0
 21 22  1  0  0  0  0
 22 23  1  0  0  0  0
 23 24  1  0  0  0  0
 24 25  1  0  0  0  0
 25 26  1  0  0  0  0
 26 27  1  0  0  0  0
 27 28  1  0  0  0  0
 28 23  1  0  0  0  0
 26 29  1  0  0  0  0
 16 17  1  0  0  0  0
 17 18  1  0  0  0  0
 17 19  1  0  0  0  0
 17 20  1  0  0  0  0
M  END
>  <Mol_ID> (138)
583

>  <Formula> (138)
C20H22F3N5O

>  <MolWeight> (138)
405.4167896

>  <Cat> (138)
S2198

>  <Name> (138)
SGI-1776 free base

>  <Synonyms> (138)
N/A

>  <Target> (138)
Pim

>  <Form> (138)
Free Base

>  <CAS> (138)
1025065-69-3

>  <URL> (138)
http://www.selleckchem.com/products/SGI-1776.html

$$$$
BMS817378.cdx
csChFnd80/05071909292D

 33 36  0  0  0  0  0  0  0  0999 V2000
    1.2082    3.4951    0.0000 N   0  0  0  0  0  0  0  0  0  0  0  0
    1.2082    2.0951    0.0000 C   0  0  0  0  0  0  0  0  0  0  0  0
    2.4207    1.3951    0.0000 C   0  0  0  0  0  0  0  0  0  0  0  0
    3.6331    2.0951    0.0000 C   0  0  0  0  0  0  0  0  0  0  0  0
    3.6331    3.4951    0.0000 C   0  0  0  0  0  0  0  0  0  0  0  0
    2.4207    4.1951    0.0000 C   0  0  0  0  0  0  0  0  0  0  0  0
    0.0000    1.3976    0.0000 N   0  0  0  0  0  0  0  0  0  0  0  0
    2.4207    0.0000    0.0000 Cl  0  0  0  0  0  0  0  0  0  0  0  0
    4.8413    1.3976    0.0000 O   0  0  0  0  0  0  0  0  0  0  0  0
    6.0538    2.0976    0.0000 C   0  0  0  0  0  0  0  0  0  0  0  0
    7.2662    1.3976    0.0000 C   0  0  0  0  0  0  0  0  0  0  0  0
    8.4786    2.0976    0.0000 C   0  0  0  0  0  0  0  0  0  0  0  0
    8.4786    3.4976    0.0000 C   0  0  0  0  0  0  0  0  0  0  0  0
    7.2662    4.1976    0.0000 C   0  0  0  0  0  0  0  0  0  0  0  0
    6.0538    3.4976    0.0000 C   0  0  0  0  0  0  0  0  0  0  0  0
    4.8455    4.1951    0.0000 F   0  0  0  0  0  0  0  0  0  0  0  0
    9.6869    4.1951    0.0000 N   0  0  0  0  0  0  0  0  0  0  0  0
   10.8951    3.4976    0.0000 C   0  0  0  0  0  0  0  0  0  0  0  0
   12.1033    4.1951    0.0000 C   0  0  0  0  0  0  0  0  0  0  0  0
   10.8951    2.1024    0.0000 O   0  0  0  0  0  0  0  0  0  0  0  0
   13.3157    3.4951    0.0000 C   0  0  0  0  0  0  0  0  0  0  0  0
   14.5282    4.1951    0.0000 N   0  0  0  0  0  0  0  0  0  0  0  0
   14.5282    5.5951    0.0000 C   0  0  0  0  0  0  0  0  0  0  0  0
   13.3157    6.2951    0.0000 C   0  0  0  0  0  0  0  0  0  0  0  0
   12.1033    5.5951    0.0000 C   0  0  0  0  0  0  0  0  0  0  0  0
   10.8951    6.2927    0.0000 O   0  0  0  0  0  0  0  0  0  0  0  0
   13.3157    7.6903    0.0000 C   0  0  0  0  0  0  0  0  0  0  0  0
   14.5282    8.3903    0.0000 C   0  0  0  0  0  0  0  0  0  0  0  0
   14.5282    9.7903    0.0000 C   0  0  0  0  0  0  0  0  0  0  0  0
   13.3157   10.4903    0.0000 C   0  0  0  0  0  0  0  0  0  0  0  0
   12.1033    9.7903    0.0000 C   0  0  0  0  0  0  0  0  0  0  0  0
   12.1033    8.3903    0.0000 C   0  0  0  0  0  0  0  0  0  0  0  0
   13.3157   11.8854    0.0000 F   0  0  0  0  0  0  0  0  0  0  0  0
  1  2  2  0  0  0  0
  2  3  1  0  0  0  0
  3  4  2  0  0  0  0
  4  5  1  0  0  0  0
  5  6  2  0  0  0  0
  6  1  1  0  0  0  0
  2  7  1  0  0  0  0
  3  8  1  0  0  0  0
  4  9  1  0  0  0  0
  9 10  1  0  0  0  0
 10 11  2  0  0  0  0
 11 12  1  0  0  0  0
 12 13  2  0  0  0  0
 13 14  1  0  0  0  0
 14 15  2  0  0  0  0
 15 10  1  0  0  0  0
 15 16  1  0  0  0  0
 13 17  1  0  0  0  0
 17 18  1  0  0  0  0
 18 19  1  0  0  0  0
 18 20  2  0  0  0  0
 19 21  2  0  0  0  0
 21 22  1  0  0  0  0
 22 23  1  0  0  0  0
 23 24  2  0  0  0  0
 24 25  1  0  0  0  0
 25 19  1  0  0  0  0
 25 26  2  0  0  0  0
 24 27  1  0  0  0  0
 27 28  2  0  0  0  0
 28 29  1  0  0  0  0
 29 30  2  0  0  0  0
 30 31  1  0  0  0  0
 31 32  2  0  0  0  0
 32 27  1  0  0  0  0
 30 33  1  0  0  0  0
M  END
>  <Mol_ID> (139)
585

>  <Formula> (139)
C23H15ClF2N4O3

>  <MolWeight> (139)
468.8400064

>  <Cat> (139)
S2201

>  <Name> (139)
BMS 794833

>  <Synonyms> (139)
BMS794833

>  <Target> (139)
c-Met, VEGFR

>  <Form> (139)
Free Base

>  <CAS> (139)
1174046-72-0

>  <URL> (139)
http://www.selleckchem.com/products/BMS-794833.html

$$$$
NVP-BHG712.cdx
csChFnd80/05071909292D

 37 41  0  0  0  0  0  0  0  0999 V2000
    2.1544    4.1976    0.0000 C   0  0  0  0  0  0  0  0  0  0  0  0
    2.1544    2.7976    0.0000 C   0  0  0  0  0  0  0  0  0  0  0  0
    3.3668    2.0976    0.0000 N   0  0  0  0  0  0  0  0  0  0  0  0
    4.5793    2.7976    0.0000 C   0  0  0  0  0  0  0  0  0  0  0  0
    4.5793    4.1976    0.0000 N   0  0  0  0  0  0  0  0  0  0  0  0
    3.3668    4.8976    0.0000 C   0  0  0  0  0  0  0  0  0  0  0  0
    0.8229    4.6302    0.0000 C   0  0  0  0  0  0  0  0  0  0  0  0
    0.0000    3.4976    0.0000 N   0  0  0  0  0  0  0  0  0  0  0  0
    0.8229    2.3649    0.0000 N   0  0  0  0  0  0  0  0  0  0  0  0
    0.3918    1.0381    0.0000 C   0  0  0  0  0  0  0  0  0  0  0  0
    3.3668    6.2927    0.0000 N   0  0  0  0  0  0  0  0  0  0  0  0
    4.5793    6.9927    0.0000 C   0  0  0  0  0  0  0  0  0  0  0  0
    5.7875    2.1000    0.0000 C   0  0  0  0  0  0  0  0  0  0  0  0
    5.7875    0.7000    0.0000 C   0  0  0  0  0  0  0  0  0  0  0  0
    6.9999    0.0000    0.0000 C   0  0  0  0  0  0  0  0  0  0  0  0
    8.2124    0.7000    0.0000 C   0  0  0  0  0  0  0  0  0  0  0  0
    8.2124    2.1000    0.0000 N   0  0  0  0  0  0  0  0  0  0  0  0
    6.9999    2.8000    0.0000 C   0  0  0  0  0  0  0  0  0  0  0  0
    5.7917    6.2927    0.0000 C   0  0  0  0  0  0  0  0  0  0  0  0
    7.0041    6.9927    0.0000 C   0  0  0  0  0  0  0  0  0  0  0  0
    7.0041    8.3927    0.0000 C   0  0  0  0  0  0  0  0  0  0  0  0
    5.7917    9.0927    0.0000 C   0  0  0  0  0  0  0  0  0  0  0  0
    4.5793    8.3927    0.0000 C   0  0  0  0  0  0  0  0  0  0  0  0
    3.3710    9.0903    0.0000 C   0  0  0  0  0  0  0  0  0  0  0  0
    8.2124    6.2951    0.0000 C   0  0  0  0  0  0  0  0  0  0  0  0
    9.4206    6.9927    0.0000 N   0  0  0  0  0  0  0  0  0  0  0  0
   10.6288    6.2951    0.0000 C   0  0  0  0  0  0  0  0  0  0  0  0
    8.2124    4.9000    0.0000 O   0  0  0  0  0  0  0  0  0  0  0  0
   10.6288    4.8951    0.0000 C   0  0  0  0  0  0  0  0  0  0  0  0
   11.8412    4.1951    0.0000 C   0  0  0  0  0  0  0  0  0  0  0  0
   13.0537    4.8951    0.0000 C   0  0  0  0  0  0  0  0  0  0  0  0
   13.0537    6.2951    0.0000 C   0  0  0  0  0  0  0  0  0  0  0  0
   11.8412    6.9951    0.0000 C   0  0  0  0  0  0  0  0  0  0  0  0
   14.2619    6.9927    0.0000 C   0  0  0  0  0  0  0  0  0  0  0  0
   15.4701    6.2951    0.0000 F   0  0  0  0  0  0  0  0  0  0  0  0
   14.2619    8.3879    0.0000 F   0  0  0  0  0  0  0  0  0  0  0  0
   15.4743    7.6927    0.0000 F   0  0  0  0  0  0  0  0  0  0  0  0
  1  2  2  0  0  0  0
  2  3  1  0  0  0  0
  3  4  2  0  0  0  0
  4  5  1  0  0  0  0
  5  6  2  0  0  0  0
  6  1  1  0  0  0  0
  1  7  1  0  0  0  0
  7  8  2  0  0  0  0
  8  9  1  0  0  0  0
  9  2  1  0  0  0  0
  9 10  1  0  0  0  0
  6 11  1  0  0  0  0
 11 12  1  0  0  0  0
  4 13  1  0  0  0  0
 13 14  2  0  0  0  0
 14 15  1  0  0  0  0
 15 16  2  0  0  0  0
 16 17  1  0  0  0  0
 17 18  2  0  0  0  0
 18 13  1  0  0  0  0
 12 19  2  0  0  0  0
 19 20  1  0  0  0  0
 20 21  2  0  0  0  0
 21 22  1  0  0  0  0
 22 23  2  0  0  0  0
 23 12  1  0  0  0  0
 23 24  1  0  0  0  0
 20 25  1  0  0  0  0
 25 26  1  0  0  0  0
 26 27  1  0  0  0  0
 25 28  2  0  0  0  0
 27 29  2  0  0  0  0
 29 30  1  0  0  0  0
 30 31  2  0  0  0  0
 31 32  1  0  0  0  0
 32 33  2  0  0  0  0
 33 27  1  0  0  0  0
 32 34  1  0  0  0  0
 34 35  1  0  0  0  0
 34 36  1  0  0  0  0
 34 37  1  0  0  0  0
M  END
>  <Mol_ID> (140)
586

>  <Formula> (140)
C26H20F3N7O

>  <MolWeight> (140)
503.4785096

>  <Cat> (140)
S2202

>  <Name> (140)
NVP-BHG712

>  <Synonyms> (140)
N/A

>  <Target> (140)
VEGFR, Src, Raf, Bcr-Abl

>  <Form> (140)
Free Base

>  <CAS> (140)
940310-85-0

>  <URL> (140)
http://www.selleckchem.com/products/NVP-BHG712.html

$$$$
OSI 420.cdx
csChFnd80/05071909292D

 29 30  0  0  0  0  0  0  0  0999 V2000
    8.4828    3.3250    0.0000 C   0  0  0  0  0  0  0  0  0  0  0  0
    8.4828    1.9250    0.0000 C   0  0  0  0  0  0  0  0  0  0  0  0
    9.6953    1.2250    0.0000 C   0  0  0  0  0  0  0  0  0  0  0  0
   10.9077    1.9250    0.0000 C   0  0  0  0  0  0  0  0  0  0  0  0
   10.9077    3.3250    0.0000 C   0  0  0  0  0  0  0  0  0  0  0  0
    9.6953    4.0250    0.0000 C   0  0  0  0  0  0  0  0  0  0  0  0
    9.6953    5.4201    0.0000 N   0  0  0  0  0  0  0  0  0  0  0  0
    9.6953    6.8201    0.0000 C   0  0  0  0  0  0  0  0  0  0  0  0
   10.9077    7.5201    0.0000 N   0  0  0  0  0  0  0  0  0  0  0  0
   10.9077    8.9201    0.0000 C   0  0  0  0  0  0  0  0  0  0  0  0
    9.6953    9.6201    0.0000 N   0  0  0  0  0  0  0  0  0  0  0  0
    8.4828    8.9201    0.0000 C   0  0  0  0  0  0  0  0  0  0  0  0
    8.4828    7.5201    0.0000 C   0  0  0  0  0  0  0  0  0  0  0  0
    7.2704    9.6201    0.0000 C   0  0  0  0  0  0  0  0  0  0  0  0
    6.0580    8.9201    0.0000 C   0  0  0  0  0  0  0  0  0  0  0  0
    6.0580    7.5201    0.0000 C   0  0  0  0  0  0  0  0  0  0  0  0
    7.2704    6.8201    0.0000 C   0  0  0  0  0  0  0  0  0  0  0  0
    4.8497    9.6177    0.0000 O   0  0  0  0  0  0  0  0  0  0  0  0
    4.8497    6.8226    0.0000 O   0  0  0  0  0  0  0  0  0  0  0  0
    3.6373    8.9177    0.0000 C   0  0  0  0  0  0  0  0  0  0  0  0
    2.4249    9.6177    0.0000 C   0  0  0  0  0  0  0  0  0  0  0  0
    1.2124    8.9177    0.0000 O   0  0  0  0  0  0  0  0  0  0  0  0
    3.6373    7.5226    0.0000 C   0  0  0  0  0  0  0  0  0  0  0  0
    2.4249    6.8226    0.0000 C   0  0  0  0  0  0  0  0  0  0  0  0
    1.2124    7.5226    0.0000 O   0  0  0  0  0  0  0  0  0  0  0  0
    7.2746    1.2274    0.0000 C   0  0  0  0  0  0  0  0  0  0  0  0
    6.0622    1.9274    0.0000 C   0  0  0  0  0  0  0  0  0  0  0  0
    0.0000    9.6177    0.0000 C   0  0  0  0  0  0  0  0  0  0  0  0
    2.9140    0.0000    0.0000 Cl  0  0  0  0  0  0  0  0  0  0  0  0
  1  2  2  0  0  0  0
  2  3  1  0  0  0  0
  3  4  2  0  0  0  0
  4  5  1  0  0  0  0
  5  6  2  0  0  0  0
  6  1  1  0  0  0  0
  6  7  1  0  0  0  0
  7  8  1  0  0  0  0
  8  9  2  0  0  0  0
  9 10  1  0  0  0  0
 10 11  2  0  0  0  0
 11 12  1  0  0  0  0
 12 13  2  0  0  0  0
 13  8  1  0  0  0  0
 12 14  1  0  0  0  0
 14 15  2  0  0  0  0
 15 16  1  0  0  0  0
 16 17  2  0  0  0  0
 17 13  1  0  0  0  0
 15 18  1  0  0  0  0
 16 19  1  0  0  0  0
 18 20  1  0  0  0  0
 20 21  1  0  0  0  0
 21 22  1  0  0  0  0
 19 23  1  0  0  0  0
 23 24  1  0  0  0  0
 24 25  1  0  0  0  0
  2 26  1  0  0  0  0
 26 27  3  0  0  0  0
 22 28  1  0  0  0  0
M  END
>  <Mol_ID> (141)
587

>  <Formula> (141)
C21H22ClN3O4

>  <MolWeight> (141)
415.87008

>  <Cat> (141)
S2205

>  <Name> (141)
OSI-420 (Desmethyl Erlotinib)

>  <Synonyms> (141)
CP-473420 

>  <Target> (141)
EGFR

>  <Form> (141)
Hydrochloride

>  <CAS> (141)
183320-51-6

>  <URL> (141)
http://www.selleckchem.com/products/OSI-420-Desmethyl-Erlotinib,CP-473420.html

$$$$
PIK 293.cdx
csChFnd80/05071909292D

 30 34  0  0  0  0  0  0  0  0999 V2000
    4.6470    4.1976    0.0000 C   0  0  0  0  0  0  0  0  0  0  0  0
    4.6470    2.7976    0.0000 N   0  0  0  0  0  0  0  0  0  0  0  0
    5.8595    2.0976    0.0000 C   0  0  0  0  0  0  0  0  0  0  0  0
    7.0719    2.7976    0.0000 C   0  0  0  0  0  0  0  0  0  0  0  0
    7.0719    4.1976    0.0000 C   0  0  0  0  0  0  0  0  0  0  0  0
    5.8595    4.8976    0.0000 N   0  0  0  0  0  0  0  0  0  0  0  0
    8.2843    2.0976    0.0000 C   0  0  0  0  0  0  0  0  0  0  0  0
    9.4968    2.7976    0.0000 C   0  0  0  0  0  0  0  0  0  0  0  0
    9.4968    4.1976    0.0000 C   0  0  0  0  0  0  0  0  0  0  0  0
    8.2843    4.8976    0.0000 C   0  0  0  0  0  0  0  0  0  0  0  0
    8.2843    0.7024    0.0000 C   0  0  0  0  0  0  0  0  0  0  0  0
    5.8595    0.7024    0.0000 O   0  0  0  0  0  0  0  0  0  0  0  0
    3.4388    2.1000    0.0000 C   0  0  0  0  0  0  0  0  0  0  0  0
    2.2264    2.8000    0.0000 C   0  0  0  0  0  0  0  0  0  0  0  0
    1.0139    2.1000    0.0000 C   0  0  0  0  0  0  0  0  0  0  0  0
    1.0139    0.7000    0.0000 C   0  0  0  0  0  0  0  0  0  0  0  0
    2.2264    0.0000    0.0000 C   0  0  0  0  0  0  0  0  0  0  0  0
    3.4388    0.7000    0.0000 C   0  0  0  0  0  0  0  0  0  0  0  0
    2.2264    4.1951    0.0000 C   0  0  0  0  0  0  0  0  0  0  0  0
    3.4388    4.8951    0.0000 C   0  0  0  0  0  0  0  0  0  0  0  0
    3.4388    6.2951    0.0000 N   0  0  0  0  0  0  0  0  0  0  0  0
    4.5714    7.1180    0.0000 N   0  0  0  0  0  0  0  0  0  0  0  0
    4.1388    8.4495    0.0000 C   0  0  0  0  0  0  0  0  0  0  0  0
    2.7388    8.4495    0.0000 C   0  0  0  0  0  0  0  0  0  0  0  0
    2.3062    7.1180    0.0000 C   0  0  0  0  0  0  0  0  0  0  0  0
    1.8020    9.4899    0.0000 C   0  0  0  0  0  0  0  0  0  0  0  0
    0.4326    9.1988    0.0000 N   0  0  0  0  0  0  0  0  0  0  0  0
    0.0000    7.8674    0.0000 C   0  0  0  0  0  0  0  0  0  0  0  0
    0.9368    6.8270    0.0000 N   0  0  0  0  0  0  0  0  0  0  0  0
    2.2332   10.8168    0.0000 N   0  0  0  0  0  0  0  0  0  0  0  0
  1  2  1  0  0  0  0
  2  3  1  0  0  0  0
  3  4  1  0  0  0  0
  4  5  2  0  0  0  0
  5  6  1  0  0  0  0
  6  1  2  0  0  0  0
  4  7  1  0  0  0  0
  7  8  2  0  0  0  0
  8  9  1  0  0  0  0
  9 10  2  0  0  0  0
 10  5  1  0  0  0  0
  7 11  1  0  0  0  0
  3 12  2  0  0  0  0
  2 13  1  0  0  0  0
 13 14  2  0  0  0  0
 14 15  1  0  0  0  0
 15 16  2  0  0  0  0
 16 17  1  0  0  0  0
 17 18  2  0  0  0  0
 18 13  1  0  0  0  0
 14 19  1  0  0  0  0
  1 20  1  0  0  0  0
 20 21  1  0  0  0  0
 21 22  1  0  0  0  0
 22 23  2  0  0  0  0
 23 24  1  0  0  0  0
 24 25  2  0  0  0  0
 25 21  1  0  0  0  0
 24 26  1  0  0  0  0
 26 27  2  0  0  0  0
 27 28  1  0  0  0  0
 28 29  2  0  0  0  0
 29 25  1  0  0  0  0
 26 30  1  0  0  0  0
M  END
>  <Mol_ID> (142)
588

>  <Formula> (142)
C22H19N7O

>  <MolWeight> (142)
397.43256

>  <Cat> (142)
S2207

>  <Name> (142)
PIK-293

>  <Synonyms> (142)
N/A

>  <Target> (142)
PI3K

>  <Form> (142)
Free Base

>  <CAS> (142)
900185-01-5 

>  <URL> (142)
http://www.selleckchem.com/products/PIK-293.html

$$$$
AZ 960.cdx
csChFnd80/05071909292D

 26 28  0  0  0  0  0  0  0  0999 V2000
    2.4138    9.7903    0.0000 C   0  0  0  0  0  0  0  0  0  0  0  0
    2.4138    8.3903    0.0000 C   0  0  0  0  0  0  0  0  0  0  0  0
    3.6262    7.6903    0.0000 C   0  0  0  0  0  0  0  0  0  0  0  0
    4.8387    8.3903    0.0000 N   0  0  0  0  0  0  0  0  0  0  0  0
    4.8387    9.7903    0.0000 C   0  0  0  0  0  0  0  0  0  0  0  0
    3.6262   10.4903    0.0000 C   0  0  0  0  0  0  0  0  0  0  0  0
    3.6262   11.8854    0.0000 F   0  0  0  0  0  0  0  0  0  0  0  0
    1.2056    7.6927    0.0000 C   0  0  0  0  0  0  0  0  0  0  0  0
    6.0469   10.4879    0.0000 N   0  0  0  0  0  0  0  0  0  0  0  0
    7.2551    9.7903    0.0000 C   0  0  0  0  0  0  0  0  0  0  0  0
    7.4015    8.3980    0.0000 C   0  0  0  0  0  0  0  0  0  0  0  0
    8.7709    8.1069    0.0000 C   0  0  0  0  0  0  0  0  0  0  0  0
    9.4709    9.3193    0.0000 N   0  0  0  0  0  0  0  0  0  0  0  0
    8.5341   10.3597    0.0000 N   0  0  0  0  0  0  0  0  0  0  0  0
    9.3383    6.8324    0.0000 C   0  0  0  0  0  0  0  0  0  0  0  0
    3.6262    6.2951    0.0000 N   0  0  0  0  0  0  0  0  0  0  0  0
    4.8387    5.5951    0.0000 C   0  0  2  0  0  0  0  0  0  0  0  0
    4.8387    4.1951    0.0000 C   0  0  0  0  0  0  0  0  0  0  0  0
    3.6262    3.4951    0.0000 C   0  0  0  0  0  0  0  0  0  0  0  0
    3.6262    2.0951    0.0000 C   0  0  0  0  0  0  0  0  0  0  0  0
    4.8387    1.3951    0.0000 C   0  0  0  0  0  0  0  0  0  0  0  0
    6.0511    2.0951    0.0000 C   0  0  0  0  0  0  0  0  0  0  0  0
    6.0511    3.4951    0.0000 C   0  0  0  0  0  0  0  0  0  0  0  0
    6.0469    6.2927    0.0000 C   0  0  0  0  0  0  0  0  0  0  0  0
    4.8387    0.0000    0.0000 F   0  0  0  0  0  0  0  0  0  0  0  0
    0.0000    6.9976    0.0000 N   0  0  0  0  0  0  0  0  0  0  0  0
  1  2  2  0  0  0  0
  2  3  1  0  0  0  0
  3  4  2  0  0  0  0
  4  5  1  0  0  0  0
  5  6  2  0  0  0  0
  6  1  1  0  0  0  0
  6  7  1  0  0  0  0
  2  8  1  0  0  0  0
  5  9  1  0  0  0  0
  9 10  1  0  0  0  0
 10 11  1  0  0  0  0
 11 12  2  0  0  0  0
 12 13  1  0  0  0  0
 13 14  1  0  0  0  0
 14 10  2  0  0  0  0
 12 15  1  0  0  0  0
  3 16  1  0  0  0  0
 16 17  1  0  0  0  0
 17 18  1  0  0  0  0
 18 19  2  0  0  0  0
 19 20  1  0  0  0  0
 20 21  2  0  0  0  0
 21 22  1  0  0  0  0
 22 23  2  0  0  0  0
 23 18  1  0  0  0  0
 17 24  1  1  0  0  0
 21 25  1  0  0  0  0
  8 26  3  0  0  0  0
M  END
>  <Mol_ID> (143)
590

>  <Formula> (143)
C18H16F2N6

>  <MolWeight> (143)
354.3566464

>  <Cat> (143)
S2214

>  <Name> (143)
AZ 960

>  <Synonyms> (143)
N/A

>  <Target> (143)
JAK

>  <Form> (143)
Free Base

>  <CAS> (143)
905586-69-8

>  <URL> (143)
http://www.selleckchem.com/products/AZ-960.html

$$$$
Mubritinib.cdx
csChFnd80/05071909292D

 34 37  0  0  0  0  0  0  0  0999 V2000
    2.4207    3.4927    0.0000 C   0  0  0  0  0  0  0  0  0  0  0  0
    2.4207    2.0927    0.0000 C   0  0  0  0  0  0  0  0  0  0  0  0
    3.6331    1.3927    0.0000 C   0  0  0  0  0  0  0  0  0  0  0  0
    4.8455    2.0927    0.0000 C   0  0  0  0  0  0  0  0  0  0  0  0
    4.8455    3.4927    0.0000 C   0  0  0  0  0  0  0  0  0  0  0  0
    3.6331    4.1927    0.0000 C   0  0  0  0  0  0  0  0  0  0  0  0
    1.2124    1.3951    0.0000 C   0  0  0  0  0  0  0  0  0  0  0  0
    0.0042    2.0927    0.0000 F   0  0  0  0  0  0  0  0  0  0  0  0
    1.2124    0.0000    0.0000 F   0  0  0  0  0  0  0  0  0  0  0  0
    0.0000    0.6951    0.0000 F   0  0  0  0  0  0  0  0  0  0  0  0
    6.0538    4.1903    0.0000 C   0  0  0  0  0  0  0  0  0  0  0  0
    7.2620    3.4927    0.0000 C   0  0  0  0  0  0  0  0  0  0  0  0
    8.4744    4.1927    0.0000 C   0  0  0  0  0  0  0  0  0  0  0  0
    9.7534    3.6233    0.0000 O   0  0  0  0  0  0  0  0  0  0  0  0
   10.6902    4.6637    0.0000 C   0  0  0  0  0  0  0  0  0  0  0  0
    9.9902    5.8761    0.0000 C   0  0  0  0  0  0  0  0  0  0  0  0
    8.6208    5.5850    0.0000 N   0  0  0  0  0  0  0  0  0  0  0  0
   10.5576    7.1506    0.0000 C   0  0  0  0  0  0  0  0  0  0  0  0
   11.9451    7.2965    0.0000 O   0  0  0  0  0  0  0  0  0  0  0  0
   12.5126    8.5710    0.0000 C   0  0  0  0  0  0  0  0  0  0  0  0
   13.9049    8.7173    0.0000 C   0  0  0  0  0  0  0  0  0  0  0  0
   14.4743    9.9963    0.0000 C   0  0  0  0  0  0  0  0  0  0  0  0
   13.6514   11.1289    0.0000 C   0  0  0  0  0  0  0  0  0  0  0  0
   12.2591   10.9826    0.0000 C   0  0  0  0  0  0  0  0  0  0  0  0
   11.6897    9.7036    0.0000 C   0  0  0  0  0  0  0  0  0  0  0  0
   14.2189   12.4035    0.0000 C   0  0  0  0  0  0  0  0  0  0  0  0
   15.6064   12.5493    0.0000 C   0  0  0  0  0  0  0  0  0  0  0  0
   16.1738   13.8238    0.0000 C   0  0  0  0  0  0  0  0  0  0  0  0
   17.5613   13.9696    0.0000 C   0  0  0  0  0  0  0  0  0  0  0  0
   18.1288   15.2442    0.0000 N   0  0  0  0  0  0  0  0  0  0  0  0
   19.4982   15.5352    0.0000 N   0  0  0  0  0  0  0  0  0  0  0  0
   19.6445   16.9276    0.0000 N   0  0  0  0  0  0  0  0  0  0  0  0
   18.3656   17.4970    0.0000 C   0  0  0  0  0  0  0  0  0  0  0  0
   17.4288   16.4566    0.0000 C   0  0  0  0  0  0  0  0  0  0  0  0
  1  2  2  0  0  0  0
  2  3  1  0  0  0  0
  3  4  2  0  0  0  0
  4  5  1  0  0  0  0
  5  6  2  0  0  0  0
  6  1  1  0  0  0  0
  2  7  1  0  0  0  0
  7  8  1  0  0  0  0
  7  9  1  0  0  0  0
  7 10  1  0  0  0  0
  5 11  1  0  0  0  0
 11 12  2  0  0  0  0
 12 13  1  0  0  0  0
 13 14  1  0  0  0  0
 14 15  1  0  0  0  0
 15 16  2  0  0  0  0
 16 17  1  0  0  0  0
 17 13  2  0  0  0  0
 16 18  1  0  0  0  0
 18 19  1  0  0  0  0
 19 20  1  0  0  0  0
 20 21  2  0  0  0  0
 21 22  1  0  0  0  0
 22 23  2  0  0  0  0
 23 24  1  0  0  0  0
 24 25  2  0  0  0  0
 25 20  1  0  0  0  0
 23 26  1  0  0  0  0
 26 27  1  0  0  0  0
 27 28  1  0  0  0  0
 28 29  1  0  0  0  0
 29 30  1  0  0  0  0
 30 31  1  0  0  0  0
 31 32  2  0  0  0  0
 32 33  1  0  0  0  0
 33 34  2  0  0  0  0
 34 30  1  0  0  0  0
M  END
>  <Mol_ID> (144)
592

>  <Formula> (144)
C25H23F3N4O2

>  <MolWeight> (144)
468.4709296

>  <Cat> (144)
S2216

>  <Name> (144)
Mubritinib (TAK 165)

>  <Synonyms> (144)
TAK 165, TAK165

>  <Target> (144)
HER2

>  <Form> (144)
Free Base

>  <CAS> (144)
366017-09-6

>  <URL> (144)
http://www.selleckchem.com/products/Mubritinib-TAK-165.html

$$$$
PP442.cdx
csChFnd80/05071909292D

 23 26  0  0  0  0  0  0  0  0999 V2000
    0.0000    4.1963    0.0000 N   0  0  0  0  0  0  0  0  0  0  0  0
    0.0000    2.7963    0.0000 C   0  0  0  0  0  0  0  0  0  0  0  0
    1.2124    2.0963    0.0000 N   0  0  0  0  0  0  0  0  0  0  0  0
    2.4249    2.7963    0.0000 C   0  0  0  0  0  0  0  0  0  0  0  0
    2.4249    4.1963    0.0000 C   0  0  0  0  0  0  0  0  0  0  0  0
    1.2124    4.8963    0.0000 C   0  0  0  0  0  0  0  0  0  0  0  0
    3.7564    2.3636    0.0000 N   0  0  0  0  0  0  0  0  0  0  0  0
    4.5793    3.4963    0.0000 N   0  0  0  0  0  0  0  0  0  0  0  0
    3.7564    4.6289    0.0000 C   0  0  0  0  0  0  0  0  0  0  0  0
    1.2124    6.2914    0.0000 N   0  0  0  0  0  0  0  0  0  0  0  0
    4.1875    1.0368    0.0000 C   0  0  0  0  0  0  0  0  0  0  0  0
    3.2539    0.0000    0.0000 C   0  0  0  0  0  0  0  0  0  0  0  0
    5.5521    0.7467    0.0000 C   0  0  0  0  0  0  0  0  0  0  0  0
    4.1875    5.9558    0.0000 C   0  0  0  0  0  0  0  0  0  0  0  0
    5.5190    6.3884    0.0000 N   0  0  0  0  0  0  0  0  0  0  0  0
    5.5190    7.7884    0.0000 C   0  0  0  0  0  0  0  0  0  0  0  0
    4.1875    8.2210    0.0000 C   0  0  0  0  0  0  0  0  0  0  0  0
    3.3646    7.0884    0.0000 C   0  0  0  0  0  0  0  0  0  0  0  0
    6.5594    8.7252    0.0000 C   0  0  0  0  0  0  0  0  0  0  0  0
    6.2683   10.0946    0.0000 C   0  0  0  0  0  0  0  0  0  0  0  0
    4.9368   10.5272    0.0000 C   0  0  0  0  0  0  0  0  0  0  0  0
    3.8964    9.5904    0.0000 C   0  0  0  0  0  0  0  0  0  0  0  0
    4.6467   11.8918    0.0000 O   0  0  0  0  0  0  0  0  0  0  0  0
  1  2  2  0  0  0  0
  2  3  1  0  0  0  0
  3  4  2  0  0  0  0
  4  5  1  0  0  0  0
  5  6  2  0  0  0  0
  6  1  1  0  0  0  0
  4  7  1  0  0  0  0
  7  8  1  0  0  0  0
  8  9  2  0  0  0  0
  9  5  1  0  0  0  0
  6 10  1  0  0  0  0
  7 11  1  0  0  0  0
 11 12  1  0  0  0  0
 11 13  1  0  0  0  0
  9 14  1  0  0  0  0
 14 15  1  0  0  0  0
 15 16  1  0  0  0  0
 16 17  2  0  0  0  0
 17 18  1  0  0  0  0
 18 14  2  0  0  0  0
 16 19  1  0  0  0  0
 19 20  2  0  0  0  0
 20 21  1  0  0  0  0
 21 22  2  0  0  0  0
 22 17  1  0  0  0  0
 21 23  1  0  0  0  0
M  END
>  <Mol_ID> (145)
594

>  <Formula> (145)
C16H16N6O

>  <MolWeight> (145)
308.33784

>  <Cat> (145)
S2218

>  <Name> (145)
Torkinib (PP242)

>  <Synonyms> (145)
TORKinib 

>  <Target> (145)
mTOR

>  <Form> (145)
Free Base

>  <CAS> (145)
1092351-67-1

>  <URL> (145)
http://www.selleckchem.com/products/PP242.html

$$$$
CYT 387.cdx
csChFnd80/05071909292D

 31 34  0  0  0  0  0  0  0  0999 V2000
    3.6331    4.1976    0.0000 C   0  0  0  0  0  0  0  0  0  0  0  0
    3.6331    2.7976    0.0000 C   0  0  0  0  0  0  0  0  0  0  0  0
    4.8455    2.0976    0.0000 C   0  0  0  0  0  0  0  0  0  0  0  0
    6.0580    2.7976    0.0000 C   0  0  0  0  0  0  0  0  0  0  0  0
    6.0580    4.1976    0.0000 C   0  0  0  0  0  0  0  0  0  0  0  0
    4.8455    4.8976    0.0000 C   0  0  0  0  0  0  0  0  0  0  0  0
    2.4249    2.1000    0.0000 N   0  0  0  0  0  0  0  0  0  0  0  0
    1.2124    2.8000    0.0000 C   0  0  0  0  0  0  0  0  0  0  0  0
    0.0000    2.1000    0.0000 C   0  0  0  0  0  0  0  0  0  0  0  0
    0.0000    0.7000    0.0000 O   0  0  0  0  0  0  0  0  0  0  0  0
    1.2124    0.0000    0.0000 C   0  0  0  0  0  0  0  0  0  0  0  0
    2.4249    0.7000    0.0000 C   0  0  0  0  0  0  0  0  0  0  0  0
    7.2662    4.8951    0.0000 N   0  0  0  0  0  0  0  0  0  0  0  0
    8.4744    4.1976    0.0000 C   0  0  0  0  0  0  0  0  0  0  0  0
    8.4744    2.7976    0.0000 N   0  0  0  0  0  0  0  0  0  0  0  0
    9.6869    2.0976    0.0000 C   0  0  0  0  0  0  0  0  0  0  0  0
   10.8993    2.7976    0.0000 C   0  0  0  0  0  0  0  0  0  0  0  0
   10.8993    4.1976    0.0000 C   0  0  0  0  0  0  0  0  0  0  0  0
    9.6869    4.8976    0.0000 N   0  0  0  0  0  0  0  0  0  0  0  0
   12.1075    4.8951    0.0000 C   0  0  0  0  0  0  0  0  0  0  0  0
   13.3200    4.1951    0.0000 C   0  0  0  0  0  0  0  0  0  0  0  0
   14.5324    4.8951    0.0000 C   0  0  0  0  0  0  0  0  0  0  0  0
   14.5324    6.2951    0.0000 C   0  0  0  0  0  0  0  0  0  0  0  0
   13.3200    6.9951    0.0000 C   0  0  0  0  0  0  0  0  0  0  0  0
   12.1075    6.2951    0.0000 C   0  0  0  0  0  0  0  0  0  0  0  0
   15.7406    6.9927    0.0000 C   0  0  0  0  0  0  0  0  0  0  0  0
   16.9489    6.2951    0.0000 N   0  0  0  0  0  0  0  0  0  0  0  0
   15.7406    8.3879    0.0000 O   0  0  0  0  0  0  0  0  0  0  0  0
   18.1571    6.9927    0.0000 C   0  0  0  0  0  0  0  0  0  0  0  0
   19.3653    6.2951    0.0000 C   0  0  0  0  0  0  0  0  0  0  0  0
   20.5709    5.6000    0.0000 N   0  0  0  0  0  0  0  0  0  0  0  0
  1  2  2  0  0  0  0
  2  3  1  0  0  0  0
  3  4  2  0  0  0  0
  4  5  1  0  0  0  0
  5  6  2  0  0  0  0
  6  1  1  0  0  0  0
  2  7  1  0  0  0  0
  7  8  1  0  0  0  0
  8  9  1  0  0  0  0
  9 10  1  0  0  0  0
 10 11  1  0  0  0  0
 11 12  1  0  0  0  0
 12  7  1  0  0  0  0
  5 13  1  0  0  0  0
 13 14  1  0  0  0  0
 14 15  2  0  0  0  0
 15 16  1  0  0  0  0
 16 17  2  0  0  0  0
 17 18  1  0  0  0  0
 18 19  2  0  0  0  0
 19 14  1  0  0  0  0
 18 20  1  0  0  0  0
 20 21  2  0  0  0  0
 21 22  1  0  0  0  0
 22 23  2  0  0  0  0
 23 24  1  0  0  0  0
 24 25  2  0  0  0  0
 25 20  1  0  0  0  0
 23 26  1  0  0  0  0
 26 27  1  0  0  0  0
 26 28  2  0  0  0  0
 27 29  1  0  0  0  0
 29 30  1  0  0  0  0
 30 31  3  0  0  0  0
M  END
>  <Mol_ID> (146)
595

>  <Formula> (146)
C23H22N6O2

>  <MolWeight> (146)
414.45978

>  <Cat> (146)
S2219

>  <Name> (146)
Momelotinib (CYT387)

>  <Synonyms> (146)
CYT 11387 

>  <Target> (146)
JAK 

>  <Form> (146)
Free Base

>  <CAS> (146)
1056634-68-4

>  <URL> (146)
http://www.selleckchem.com/products/Cyt387.html

$$$$
SB 590885.cdx
csChFnd80/05071909292D

 34 38  0  0  0  0  0  0  0  0999 V2000
    8.2427    6.2826    0.0000 N   0  0  0  0  0  0  0  0  0  0  0  0
    6.8904    5.9203    0.0000 C   0  0  0  0  0  0  0  0  0  0  0  0
    6.8171    4.5222    0.0000 C   0  0  0  0  0  0  0  0  0  0  0  0
    8.1241    4.0205    0.0000 N   0  0  0  0  0  0  0  0  0  0  0  0
    9.0052    5.1085    0.0000 C   0  0  0  0  0  0  0  0  0  0  0  0
    5.6470    3.7623    0.0000 C   0  0  0  0  0  0  0  0  0  0  0  0
    5.8061    6.7983    0.0000 C   0  0  0  0  0  0  0  0  0  0  0  0
    6.0252    8.1810    0.0000 C   0  0  0  0  0  0  0  0  0  0  0  0
    4.9372    9.0621    0.0000 C   0  0  0  0  0  0  0  0  0  0  0  0
    3.6301    8.5604    0.0000 N   0  0  0  0  0  0  0  0  0  0  0  0
    3.4111    7.1776    0.0000 C   0  0  0  0  0  0  0  0  0  0  0  0
    4.4991    6.2966    0.0000 C   0  0  0  0  0  0  0  0  0  0  0  0
    4.3996    4.3979    0.0000 C   0  0  0  0  0  0  0  0  0  0  0  0
    3.2255    3.6354    0.0000 C   0  0  0  0  0  0  0  0  0  0  0  0
    3.2988    2.2374    0.0000 C   0  0  0  0  0  0  0  0  0  0  0  0
    4.5462    1.6018    0.0000 C   0  0  0  0  0  0  0  0  0  0  0  0
    5.7203    2.3643    0.0000 C   0  0  0  0  0  0  0  0  0  0  0  0
    2.3088    1.2474    0.0000 C   0  0  0  0  0  0  0  0  0  0  0  0
    2.9444    0.0000    0.0000 C   0  0  0  0  0  0  0  0  0  0  0  0
    4.3272    0.2190    0.0000 C   0  0  0  0  0  0  0  0  0  0  0  0
    0.9309    1.4657    0.0000 N   0  0  0  0  0  0  0  0  0  0  0  0
   10.3984    5.0355    0.0000 C   0  0  0  0  0  0  0  0  0  0  0  0
   11.0340    3.7881    0.0000 C   0  0  0  0  0  0  0  0  0  0  0  0
   12.4321    3.7148    0.0000 C   0  0  0  0  0  0  0  0  0  0  0  0
   13.1946    4.8889    0.0000 C   0  0  0  0  0  0  0  0  0  0  0  0
   12.5590    6.1363    0.0000 C   0  0  0  0  0  0  0  0  0  0  0  0
   11.1609    6.2096    0.0000 C   0  0  0  0  0  0  0  0  0  0  0  0
   14.5878    4.8159    0.0000 O   0  0  0  0  0  0  0  0  0  0  0  0
   15.3852    5.9607    0.0000 C   0  0  0  0  0  0  0  0  0  0  0  0
   16.7753    5.8426    0.0000 C   0  0  0  0  0  0  0  0  0  0  0  0
   17.5727    6.9874    0.0000 N   0  0  0  0  0  0  0  0  0  0  0  0
   18.9628    6.8693    0.0000 C   0  0  0  0  0  0  0  0  0  0  0  0
   16.9799    8.2504    0.0000 C   0  0  0  0  0  0  0  0  0  0  0  0
    0.0000    0.4265    0.0000 O   0  0  0  0  0  0  0  0  0  0  0  0
  1  2  1  0  0  0  0
  2  3  2  0  0  0  0
  3  4  1  0  0  0  0
  4  5  1  0  0  0  0
  5  1  2  0  0  0  0
  3  6  1  0  0  0  0
  2  7  1  0  0  0  0
  7  8  2  0  0  0  0
  8  9  1  0  0  0  0
  9 10  2  0  0  0  0
 10 11  1  0  0  0  0
 11 12  2  0  0  0  0
 12  7  1  0  0  0  0
  6 13  2  0  0  0  0
 13 14  1  0  0  0  0
 14 15  2  0  0  0  0
 15 16  1  0  0  0  0
 16 17  2  0  0  0  0
 17  6  1  0  0  0  0
 15 18  1  0  0  0  0
 18 19  1  0  0  0  0
 19 20  1  0  0  0  0
 20 16  1  0  0  0  0
 18 21  2  0  0  0  0
  5 22  1  0  0  0  0
 22 23  2  0  0  0  0
 23 24  1  0  0  0  0
 24 25  2  0  0  0  0
 25 26  1  0  0  0  0
 26 27  2  0  0  0  0
 27 22  1  0  0  0  0
 25 28  1  0  0  0  0
 28 29  1  0  0  0  0
 29 30  1  0  0  0  0
 30 31  1  0  0  0  0
 31 32  1  0  0  0  0
 31 33  1  0  0  0  0
 21 34  1  0  0  0  0
M  END
>  <Mol_ID> (147)
596

>  <Formula> (147)
C27H27N5O2

>  <MolWeight> (147)
453.53558

>  <Cat> (147)
S2220

>  <Name> (147)
SB590885

>  <Synonyms> (147)
GSK2118436 

>  <Target> (147)
Raf

>  <Form> (147)
Free Base

>  <CAS> (147)
405554-55-4 

>  <URL> (147)
http://www.selleckchem.com/products/SB590885.html

$$$$
Apigenin.cdx
csChFnd80/05071909292D

 20 22  0  0  0  0  0  0  0  0999 V2000
    1.2082    2.0951    0.0000 C   0  0  0  0  0  0  0  0  0  0  0  0
    2.4207    1.3951    0.0000 C   0  0  0  0  0  0  0  0  0  0  0  0
    3.6331    2.0951    0.0000 C   0  0  0  0  0  0  0  0  0  0  0  0
    3.6331    3.4951    0.0000 C   0  0  0  0  0  0  0  0  0  0  0  0
    2.4207    4.1951    0.0000 C   0  0  0  0  0  0  0  0  0  0  0  0
    1.2082    3.4951    0.0000 C   0  0  0  0  0  0  0  0  0  0  0  0
    4.8455    1.3951    0.0000 C   0  0  0  0  0  0  0  0  0  0  0  0
    6.0580    2.0951    0.0000 C   0  0  0  0  0  0  0  0  0  0  0  0
    6.0580    3.4951    0.0000 C   0  0  0  0  0  0  0  0  0  0  0  0
    4.8455    4.1951    0.0000 O   0  0  0  0  0  0  0  0  0  0  0  0
    0.0000    4.1927    0.0000 O   0  0  0  0  0  0  0  0  0  0  0  0
    2.4207    0.0000    0.0000 O   0  0  0  0  0  0  0  0  0  0  0  0
    4.8455    0.0000    0.0000 O   0  0  0  0  0  0  0  0  0  0  0  0
    7.2662    4.1927    0.0000 C   0  0  0  0  0  0  0  0  0  0  0  0
    8.4786    3.4927    0.0000 C   0  0  0  0  0  0  0  0  0  0  0  0
    9.6911    4.1927    0.0000 C   0  0  0  0  0  0  0  0  0  0  0  0
    9.6911    5.5927    0.0000 C   0  0  0  0  0  0  0  0  0  0  0  0
    8.4786    6.2927    0.0000 C   0  0  0  0  0  0  0  0  0  0  0  0
    7.2662    5.5927    0.0000 C   0  0  0  0  0  0  0  0  0  0  0  0
   10.8993    6.2903    0.0000 O   0  0  0  0  0  0  0  0  0  0  0  0
  1  2  2  0  0  0  0
  2  3  1  0  0  0  0
  3  4  2  0  0  0  0
  4  5  1  0  0  0  0
  5  6  2  0  0  0  0
  6  1  1  0  0  0  0
  3  7  1  0  0  0  0
  7  8  1  0  0  0  0
  8  9  2  0  0  0  0
  9 10  1  0  0  0  0
 10  4  1  0  0  0  0
  6 11  1  0  0  0  0
  2 12  1  0  0  0  0
  7 13  2  0  0  0  0
  9 14  1  0  0  0  0
 14 15  2  0  0  0  0
 15 16  1  0  0  0  0
 16 17  2  0  0  0  0
 17 18  1  0  0  0  0
 18 19  2  0  0  0  0
 19 14  1  0  0  0  0
 17 20  1  0  0  0  0
M  END
>  <Mol_ID> (148)
604

>  <Formula> (148)
C15H10O5

>  <MolWeight> (148)
270.2369

>  <Cat> (148)
S2262

>  <Name> (148)
Apigenin

>  <Synonyms> (148)
N/A

>  <Target> (148)
P450

>  <Form> (148)
Free Base

>  <CAS> (148)
520-36-5

>  <URL> (148)
http://www.selleckchem.com/products/Apigenin.html

$$$$
Formononetin.cdx
csChFnd80/05071909292D

 20 22  0  0  0  0  0  0  0  0999 V2000
    3.6331    2.7976    0.0000 C   0  0  0  0  0  0  0  0  0  0  0  0
    3.6331    4.1976    0.0000 C   0  0  0  0  0  0  0  0  0  0  0  0
    2.4207    4.8976    0.0000 C   0  0  0  0  0  0  0  0  0  0  0  0
    1.2082    4.1976    0.0000 C   0  0  0  0  0  0  0  0  0  0  0  0
    1.2082    2.7976    0.0000 C   0  0  0  0  0  0  0  0  0  0  0  0
    2.4207    2.0976    0.0000 C   0  0  0  0  0  0  0  0  0  0  0  0
    4.8455    2.0976    0.0000 C   0  0  0  0  0  0  0  0  0  0  0  0
    6.0580    2.7976    0.0000 C   0  0  0  0  0  0  0  0  0  0  0  0
    6.0580    4.1976    0.0000 C   0  0  0  0  0  0  0  0  0  0  0  0
    4.8455    4.8976    0.0000 O   0  0  0  0  0  0  0  0  0  0  0  0
    0.0000    4.8951    0.0000 O   0  0  0  0  0  0  0  0  0  0  0  0
    4.8455    0.7024    0.0000 O   0  0  0  0  0  0  0  0  0  0  0  0
    7.2662    2.1000    0.0000 C   0  0  0  0  0  0  0  0  0  0  0  0
    7.2662    0.7000    0.0000 C   0  0  0  0  0  0  0  0  0  0  0  0
    8.4786    0.0000    0.0000 C   0  0  0  0  0  0  0  0  0  0  0  0
    9.6911    0.7000    0.0000 C   0  0  0  0  0  0  0  0  0  0  0  0
    9.6911    2.1000    0.0000 C   0  0  0  0  0  0  0  0  0  0  0  0
    8.4786    2.8000    0.0000 C   0  0  0  0  0  0  0  0  0  0  0  0
   10.8993    0.0024    0.0000 O   0  0  0  0  0  0  0  0  0  0  0  0
   12.1075    0.7000    0.0000 C   0  0  0  0  0  0  0  0  0  0  0  0
  1  2  2  0  0  0  0
  2  3  1  0  0  0  0
  3  4  2  0  0  0  0
  4  5  1  0  0  0  0
  5  6  2  0  0  0  0
  6  1  1  0  0  0  0
  1  7  1  0  0  0  0
  7  8  1  0  0  0  0
  8  9  2  0  0  0  0
  9 10  1  0  0  0  0
 10  2  1  0  0  0  0
  4 11  1  0  0  0  0
  7 12  2  0  0  0  0
  8 13  1  0  0  0  0
 13 14  2  0  0  0  0
 14 15  1  0  0  0  0
 15 16  2  0  0  0  0
 16 17  1  0  0  0  0
 17 18  2  0  0  0  0
 18 13  1  0  0  0  0
 16 19  1  0  0  0  0
 19 20  1  0  0  0  0
M  END
>  <Mol_ID> (149)
631

>  <Formula> (149)
C16H12O4

>  <MolWeight> (149)
268.26408

>  <Cat> (149)
S2299

>  <Name> (149)
Formononetin (Formononetol)

>  <Synonyms> (149)
Biochanin B, Formononetol 

>  <Target> (149)
Others

>  <Form> (149)
Free Base

>  <CAS> (149)
485-72-3

>  <URL> (149)
http://www.selleckchem.com/products/Formononetin(Formononetol).html

$$$$
Honokiol.cdx
csChFnd80/05071909292D

 20 21  0  0  0  0  0  0  0  0999 V2000
    2.0951    3.6289    0.0000 C   0  0  0  0  0  0  0  0  0  0  0  0
    2.7951    2.4165    0.0000 C   0  0  0  0  0  0  0  0  0  0  0  0
    4.1951    2.4165    0.0000 C   0  0  0  0  0  0  0  0  0  0  0  0
    4.8951    3.6289    0.0000 C   0  0  0  0  0  0  0  0  0  0  0  0
    4.1951    4.8413    0.0000 C   0  0  0  0  0  0  0  0  0  0  0  0
    2.7951    4.8413    0.0000 C   0  0  0  0  0  0  0  0  0  0  0  0
    6.2903    3.6289    0.0000 C   0  0  0  0  0  0  0  0  0  0  0  0
    6.9903    2.4165    0.0000 C   0  0  0  0  0  0  0  0  0  0  0  0
    8.3903    2.4165    0.0000 C   0  0  0  0  0  0  0  0  0  0  0  0
    9.0903    3.6289    0.0000 C   0  0  0  0  0  0  0  0  0  0  0  0
    8.3903    4.8413    0.0000 C   0  0  0  0  0  0  0  0  0  0  0  0
    6.9903    4.8413    0.0000 C   0  0  0  0  0  0  0  0  0  0  0  0
    0.7000    3.6289    0.0000 O   0  0  0  0  0  0  0  0  0  0  0  0
    6.2927    6.0496    0.0000 O   0  0  0  0  0  0  0  0  0  0  0  0
    9.0879    1.2082    0.0000 C   0  0  0  0  0  0  0  0  0  0  0  0
   10.4879    1.2082    0.0000 C   0  0  0  0  0  0  0  0  0  0  0  0
   11.1854    0.0000    0.0000 C   0  0  0  0  0  0  0  0  0  0  0  0
    2.0976    1.2082    0.0000 C   0  0  0  0  0  0  0  0  0  0  0  0
    0.6976    1.2082    0.0000 C   0  0  0  0  0  0  0  0  0  0  0  0
    0.0000    0.0000    0.0000 C   0  0  0  0  0  0  0  0  0  0  0  0
  1  2  2  0  0  0  0
  2  3  1  0  0  0  0
  3  4  2  0  0  0  0
  4  5  1  0  0  0  0
  5  6  2  0  0  0  0
  6  1  1  0  0  0  0
  4  7  1  0  0  0  0
  7  8  2  0  0  0  0
  8  9  1  0  0  0  0
  9 10  2  0  0  0  0
 10 11  1  0  0  0  0
 11 12  2  0  0  0  0
 12  7  1  0  0  0  0
  1 13  1  0  0  0  0
 12 14  1  0  0  0  0
  9 15  1  0  0  0  0
 15 16  1  0  0  0  0
 16 17  2  0  0  0  0
  2 18  1  0  0  0  0
 18 19  1  0  0  0  0
 19 20  2  0  0  0  0
M  END
>  <Mol_ID> (150)
640

>  <Formula> (150)
C18H18O2

>  <MolWeight> (150)
266.33432

>  <Cat> (150)
S2310

>  <Name> (150)
Honokiol

>  <Synonyms> (150)
N/A

>  <Target> (150)
Akt, MEK

>  <Form> (150)
Free Base

>  <CAS> (150)
35354-74-6

>  <URL> (150)
http://www.selleckchem.com/products/Honokiol.html

$$$$
Myricetin.cdx
csChFnd80/05071909292D

 23 25  0  0  0  0  0  0  0  0999 V2000
    1.2082    3.4951    0.0000 C   0  0  0  0  0  0  0  0  0  0  0  0
    1.2082    2.0951    0.0000 C   0  0  0  0  0  0  0  0  0  0  0  0
    2.4207    1.3951    0.0000 C   0  0  0  0  0  0  0  0  0  0  0  0
    3.6331    2.0951    0.0000 C   0  0  0  0  0  0  0  0  0  0  0  0
    3.6331    3.4951    0.0000 C   0  0  0  0  0  0  0  0  0  0  0  0
    2.4207    4.1951    0.0000 C   0  0  0  0  0  0  0  0  0  0  0  0
    4.8455    1.3951    0.0000 C   0  0  0  0  0  0  0  0  0  0  0  0
    6.0580    2.0951    0.0000 C   0  0  0  0  0  0  0  0  0  0  0  0
    6.0580    3.4951    0.0000 C   0  0  0  0  0  0  0  0  0  0  0  0
    4.8455    4.1951    0.0000 O   0  0  0  0  0  0  0  0  0  0  0  0
    0.0000    4.1927    0.0000 O   0  0  0  0  0  0  0  0  0  0  0  0
    2.4207    0.0000    0.0000 O   0  0  0  0  0  0  0  0  0  0  0  0
    4.8455    0.0000    0.0000 O   0  0  0  0  0  0  0  0  0  0  0  0
    7.2662    1.3976    0.0000 O   0  0  0  0  0  0  0  0  0  0  0  0
    7.2662    4.1927    0.0000 C   0  0  0  0  0  0  0  0  0  0  0  0
    8.4786    3.4927    0.0000 C   0  0  0  0  0  0  0  0  0  0  0  0
    9.6911    4.1927    0.0000 C   0  0  0  0  0  0  0  0  0  0  0  0
    9.6911    5.5927    0.0000 C   0  0  0  0  0  0  0  0  0  0  0  0
    8.4786    6.2927    0.0000 C   0  0  0  0  0  0  0  0  0  0  0  0
    7.2662    5.5927    0.0000 C   0  0  0  0  0  0  0  0  0  0  0  0
   10.8993    6.2903    0.0000 O   0  0  0  0  0  0  0  0  0  0  0  0
    8.4786    7.6879    0.0000 O   0  0  0  0  0  0  0  0  0  0  0  0
   10.8993    3.4951    0.0000 O   0  0  0  0  0  0  0  0  0  0  0  0
  1  2  2  0  0  0  0
  2  3  1  0  0  0  0
  3  4  2  0  0  0  0
  4  5  1  0  0  0  0
  5  6  2  0  0  0  0
  6  1  1  0  0  0  0
  4  7  1  0  0  0  0
  7  8  1  0  0  0  0
  8  9  2  0  0  0  0
  9 10  1  0  0  0  0
 10  5  1  0  0  0  0
  1 11  1  0  0  0  0
  3 12  1  0  0  0  0
  7 13  2  0  0  0  0
  8 14  1  0  0  0  0
  9 15  1  0  0  0  0
 15 16  2  0  0  0  0
 16 17  1  0  0  0  0
 17 18  2  0  0  0  0
 18 19  1  0  0  0  0
 19 20  2  0  0  0  0
 20 15  1  0  0  0  0
 18 21  1  0  0  0  0
 19 22  1  0  0  0  0
 17 23  1  0  0  0  0
M  END
>  <Mol_ID> (151)
652

>  <Formula> (151)
C15H10O8

>  <MolWeight> (151)
318.2351

>  <Cat> (151)
S2326

>  <Name> (151)
Myricetin (Cannabiscetin)

>  <Synonyms> (151)
Cannabiscetin, Myricetol, Myricitin

>  <Target> (151)
NULL

>  <Form> (151)
Free Base

>  <CAS> (151)
529-44-2

>  <URL> (151)
http://www.selleckchem.com/products/Myricetin(Cannabiscetin).html

$$$$
Chrysophanic acid.cdx
csChFnd80/05071909292D

 19 21  0  0  0  0  0  0  0  0999 V2000
    0.0000    3.4951    0.0000 C   0  0  0  0  0  0  0  0  0  0  0  0
    0.0000    2.0951    0.0000 C   0  0  0  0  0  0  0  0  0  0  0  0
    1.2124    1.3951    0.0000 C   0  0  0  0  0  0  0  0  0  0  0  0
    2.4249    2.0951    0.0000 C   0  0  0  0  0  0  0  0  0  0  0  0
    2.4249    3.4951    0.0000 C   0  0  0  0  0  0  0  0  0  0  0  0
    1.2124    4.1951    0.0000 C   0  0  0  0  0  0  0  0  0  0  0  0
    3.6373    1.3951    0.0000 C   0  0  0  0  0  0  0  0  0  0  0  0
    4.8497    2.0951    0.0000 C   0  0  0  0  0  0  0  0  0  0  0  0
    4.8497    3.4951    0.0000 C   0  0  0  0  0  0  0  0  0  0  0  0
    3.6373    4.1951    0.0000 C   0  0  0  0  0  0  0  0  0  0  0  0
    6.0622    1.3951    0.0000 C   0  0  0  0  0  0  0  0  0  0  0  0
    7.2746    2.0951    0.0000 C   0  0  0  0  0  0  0  0  0  0  0  0
    7.2746    3.4951    0.0000 C   0  0  0  0  0  0  0  0  0  0  0  0
    6.0622    4.1951    0.0000 C   0  0  0  0  0  0  0  0  0  0  0  0
    1.2124    0.0000    0.0000 O   0  0  0  0  0  0  0  0  0  0  0  0
    3.6373    5.5903    0.0000 O   0  0  0  0  0  0  0  0  0  0  0  0
    3.6373    0.0000    0.0000 O   0  0  0  0  0  0  0  0  0  0  0  0
    6.0622    0.0000    0.0000 O   0  0  0  0  0  0  0  0  0  0  0  0
    8.4828    4.1927    0.0000 C   0  0  0  0  0  0  0  0  0  0  0  0
  1  2  2  0  0  0  0
  2  3  1  0  0  0  0
  3  4  2  0  0  0  0
  4  5  1  0  0  0  0
  5  6  2  0  0  0  0
  6  1  1  0  0  0  0
  4  7  1  0  0  0  0
  7  8  1  0  0  0  0
  8  9  2  0  0  0  0
  9 10  1  0  0  0  0
 10  5  1  0  0  0  0
  8 11  1  0  0  0  0
 11 12  2  0  0  0  0
 12 13  1  0  0  0  0
 13 14  2  0  0  0  0
 14  9  1  0  0  0  0
  3 15  1  0  0  0  0
 10 16  2  0  0  0  0
  7 17  2  0  0  0  0
 11 18  1  0  0  0  0
 13 19  1  0  0  0  0
M  END
>  <Mol_ID> (152)
678

>  <Formula> (152)
C15H10O4

>  <MolWeight> (152)
254.2375

>  <Cat> (152)
S2406

>  <Name> (152)
Chrysophanic acid (Chrysophanol)

>  <Synonyms> (152)
Chrysophanol, NSC 37132, NSC 646567

>  <Target> (152)
EGFR, mTOR

>  <Form> (152)
Free Base

>  <CAS> (152)
481-74-3

>  <URL> (152)
http://www.selleckchem.com/products/Chrysophanic-acid-Chrysophanol.html

$$$$
Imatinib.cdx
csChFnd80/05071909292D

 37 41  0  0  0  0  0  0  0  0999 V2000
    4.8371   10.4927    0.0000 N   0  0  0  0  0  0  0  0  0  0  0  0
    4.8371    9.0927    0.0000 C   0  0  0  0  0  0  0  0  0  0  0  0
    6.0496    8.3927    0.0000 N   0  0  0  0  0  0  0  0  0  0  0  0
    7.2620    9.0927    0.0000 C   0  0  0  0  0  0  0  0  0  0  0  0
    7.2620   10.4927    0.0000 C   0  0  0  0  0  0  0  0  0  0  0  0
    6.0496   11.1927    0.0000 C   0  0  0  0  0  0  0  0  0  0  0  0
    8.4702    8.3951    0.0000 C   0  0  0  0  0  0  0  0  0  0  0  0
    3.6289    8.3951    0.0000 N   0  0  0  0  0  0  0  0  0  0  0  0
    3.6289    6.9951    0.0000 C   0  0  0  0  0  0  0  0  0  0  0  0
    8.4702    6.9951    0.0000 C   0  0  0  0  0  0  0  0  0  0  0  0
    9.6826    6.2951    0.0000 C   0  0  0  0  0  0  0  0  0  0  0  0
   10.8951    6.9951    0.0000 C   0  0  0  0  0  0  0  0  0  0  0  0
   10.8951    8.3951    0.0000 N   0  0  0  0  0  0  0  0  0  0  0  0
    9.6826    9.0951    0.0000 C   0  0  0  0  0  0  0  0  0  0  0  0
    2.4165    6.2951    0.0000 C   0  0  0  0  0  0  0  0  0  0  0  0
    2.4165    4.8951    0.0000 C   0  0  0  0  0  0  0  0  0  0  0  0
    3.6289    4.1951    0.0000 C   0  0  0  0  0  0  0  0  0  0  0  0
    4.8413    4.8951    0.0000 C   0  0  0  0  0  0  0  0  0  0  0  0
    4.8413    6.2951    0.0000 C   0  0  0  0  0  0  0  0  0  0  0  0
    6.0496    6.9927    0.0000 C   0  0  0  0  0  0  0  0  0  0  0  0
    1.2082    4.1976    0.0000 N   0  0  0  0  0  0  0  0  0  0  0  0
    1.2082    2.7976    0.0000 C   0  0  0  0  0  0  0  0  0  0  0  0
    0.0000    2.1000    0.0000 O   0  0  0  0  0  0  0  0  0  0  0  0
    2.4165    2.1000    0.0000 C   0  0  0  0  0  0  0  0  0  0  0  0
    2.4165    0.7000    0.0000 C   0  0  0  0  0  0  0  0  0  0  0  0
    3.6289    0.0000    0.0000 C   0  0  0  0  0  0  0  0  0  0  0  0
    4.8413    0.7000    0.0000 C   0  0  0  0  0  0  0  0  0  0  0  0
    4.8413    2.1000    0.0000 C   0  0  0  0  0  0  0  0  0  0  0  0
    3.6289    2.8000    0.0000 C   0  0  0  0  0  0  0  0  0  0  0  0
    6.0496    0.0024    0.0000 C   0  0  0  0  0  0  0  0  0  0  0  0
    7.2578    0.7000    0.0000 N   0  0  0  0  0  0  0  0  0  0  0  0
    8.4702    0.0000    0.0000 C   0  0  0  0  0  0  0  0  0  0  0  0
    9.6826    0.7000    0.0000 C   0  0  0  0  0  0  0  0  0  0  0  0
    9.6826    2.1000    0.0000 N   0  0  0  0  0  0  0  0  0  0  0  0
    8.4702    2.8000    0.0000 C   0  0  0  0  0  0  0  0  0  0  0  0
    7.2578    2.1000    0.0000 C   0  0  0  0  0  0  0  0  0  0  0  0
   10.8909    2.7976    0.0000 C   0  0  0  0  0  0  0  0  0  0  0  0
  1  2  2  0  0  0  0
  2  3  1  0  0  0  0
  3  4  2  0  0  0  0
  4  5  1  0  0  0  0
  5  6  2  0  0  0  0
  6  1  1  0  0  0  0
  4  7  1  0  0  0  0
  2  8  1  0  0  0  0
  8  9  1  0  0  0  0
  7 10  2  0  0  0  0
 10 11  1  0  0  0  0
 11 12  2  0  0  0  0
 12 13  1  0  0  0  0
 13 14  2  0  0  0  0
 14  7  1  0  0  0  0
  9 15  2  0  0  0  0
 15 16  1  0  0  0  0
 16 17  2  0  0  0  0
 17 18  1  0  0  0  0
 18 19  2  0  0  0  0
 19  9  1  0  0  0  0
 19 20  1  0  0  0  0
 16 21  1  0  0  0  0
 21 22  1  0  0  0  0
 22 23  2  0  0  0  0
 22 24  1  0  0  0  0
 24 25  2  0  0  0  0
 25 26  1  0  0  0  0
 26 27  2  0  0  0  0
 27 28  1  0  0  0  0
 28 29  2  0  0  0  0
 29 24  1  0  0  0  0
 27 30  1  0  0  0  0
 30 31  1  0  0  0  0
 31 32  1  0  0  0  0
 32 33  1  0  0  0  0
 33 34  1  0  0  0  0
 34 35  1  0  0  0  0
 35 36  1  0  0  0  0
 36 31  1  0  0  0  0
 34 37  1  0  0  0  0
M  END
>  <Mol_ID> (153)
697

>  <Formula> (153)
C29H31N7O

>  <MolWeight> (153)
493.60274

>  <Cat> (153)
S2475 

>  <Name> (153)
Imatinib (STI571) 

>  <Synonyms> (153)
STI571, Glivec

>  <Form> (153)
Free Base

>  <CAS> (153)
152459-95-5

>  <URL> (153)
http://www.selleckchem.com/products/Imatinib(STI571).html

$$$$
PCI-32765.cdx
csChFnd80/05071909292D

 33 37  0  0  0  0  0  0  0  0999 V2000
    5.1247    0.0000    0.0000 C   0  0  0  0  0  0  0  0  0  0  0  0
    6.5245    0.0208    0.0000 N   0  0  0  0  0  0  0  0  0  0  0  0
    7.2064    1.2436    0.0000 C   0  0  0  0  0  0  0  0  0  0  0  0
    6.4884    2.4454    0.0000 C   0  0  0  0  0  0  0  0  0  0  0  0
    5.0886    2.4246    0.0000 C   0  0  0  0  0  0  0  0  0  0  0  0
    4.4067    1.2019    0.0000 N   0  0  0  0  0  0  0  0  0  0  0  0
    6.9012    3.7832    0.0000 C   0  0  0  0  0  0  0  0  0  0  0  0
    5.7564    4.5892    0.0000 N   0  0  0  0  0  0  0  0  0  0  0  0
    4.6362    3.7495    0.0000 N   0  0  0  0  0  0  0  0  0  0  0  0
    3.2984    4.1623    0.0000 C   0  0  1  0  0  0  0  0  0  0  0  0
    2.9870    5.5272    0.0000 C   0  0  0  0  0  0  0  0  0  0  0  0
    1.6492    5.9399    0.0000 N   0  0  0  0  0  0  0  0  0  0  0  0
    0.6229    4.9878    0.0000 C   0  0  0  0  0  0  0  0  0  0  0  0
    0.9343    3.6228    0.0000 C   0  0  0  0  0  0  0  0  0  0  0  0
    2.2721    3.2101    0.0000 C   0  0  0  0  0  0  0  0  0  0  0  0
    1.3378    7.3049    0.0000 C   0  0  0  0  0  0  0  0  0  0  0  0
    2.3641    8.2570    0.0000 C   0  0  0  0  0  0  0  0  0  0  0  0
    2.0527    9.6219    0.0000 C   0  0  0  0  0  0  0  0  0  0  0  0
    0.0000    7.7176    0.0000 O   0  0  0  0  0  0  0  0  0  0  0  0
    8.2261    4.2356    0.0000 C   0  0  0  0  0  0  0  0  0  0  0  0
    9.2803    3.3144    0.0000 C   0  0  0  0  0  0  0  0  0  0  0  0
   10.6052    3.7668    0.0000 C   0  0  0  0  0  0  0  0  0  0  0  0
   10.8758    5.1404    0.0000 C   0  0  0  0  0  0  0  0  0  0  0  0
    9.8216    6.0616    0.0000 C   0  0  0  0  0  0  0  0  0  0  0  0
    8.4967    5.6092    0.0000 C   0  0  0  0  0  0  0  0  0  0  0  0
   12.2007    5.5928    0.0000 O   0  0  0  0  0  0  0  0  0  0  0  0
   12.4714    6.9664    0.0000 C   0  0  0  0  0  0  0  0  0  0  0  0
   13.7963    7.4188    0.0000 C   0  0  0  0  0  0  0  0  0  0  0  0
   14.0669    8.7924    0.0000 C   0  0  0  0  0  0  0  0  0  0  0  0
   13.0127    9.7136    0.0000 C   0  0  0  0  0  0  0  0  0  0  0  0
   11.6878    9.2612    0.0000 C   0  0  0  0  0  0  0  0  0  0  0  0
   11.4172    7.8876    0.0000 C   0  0  0  0  0  0  0  0  0  0  0  0
    8.6014    1.2643    0.0000 N   0  0  0  0  0  0  0  0  0  0  0  0
  1  2  2  0  0  0  0
  2  3  1  0  0  0  0
  3  4  2  0  0  0  0
  4  5  1  0  0  0  0
  5  6  2  0  0  0  0
  6  1  1  0  0  0  0
  4  7  1  0  0  0  0
  7  8  2  0  0  0  0
  8  9  1  0  0  0  0
  9  5  1  0  0  0  0
  9 10  1  6  0  0  0
 10 11  1  0  0  0  0
 11 12  1  0  0  0  0
 12 13  1  0  0  0  0
 13 14  1  0  0  0  0
 14 15  1  0  0  0  0
 15 10  1  0  0  0  0
 12 16  1  0  0  0  0
 16 17  1  0  0  0  0
 17 18  2  0  0  0  0
 16 19  2  0  0  0  0
  7 20  1  0  0  0  0
 20 21  2  0  0  0  0
 21 22  1  0  0  0  0
 22 23  2  0  0  0  0
 23 24  1  0  0  0  0
 24 25  2  0  0  0  0
 25 20  1  0  0  0  0
 23 26  1  0  0  0  0
 26 27  1  0  0  0  0
 27 28  2  0  0  0  0
 28 29  1  0  0  0  0
 29 30  2  0  0  0  0
 30 31  1  0  0  0  0
 31 32  2  0  0  0  0
 32 27  1  0  0  0  0
  3 33  1  0  0  0  0
M  END
>  <Mol_ID> (154)
702

>  <Formula> (154)
C25H24N6O2

>  <MolWeight> (154)
440.49706

>  <Cat> (154)
S2680

>  <Name> (154)
PCI-32765 (Ibrutinib)

>  <Synonyms> (154)
N/A

>  <Target> (154)
Src

>  <Form> (154)
Free Base

>  <CAS> (154)
936563-96-1

>  <URL> (154)
http://www.selleckchem.com/products/pci-32765.html

$$$$
TAK-901.cdx
csChFnd80/05071909292D

 36 40  0  0  0  0  0  0  0  0999 V2000
    1.2082    2.1000    0.0000 C   0  0  0  0  0  0  0  0  0  0  0  0
    1.2082    0.7000    0.0000 N   0  0  0  0  0  0  0  0  0  0  0  0
    2.4207    0.0000    0.0000 C   0  0  0  0  0  0  0  0  0  0  0  0
    3.6331    0.7000    0.0000 C   0  0  0  0  0  0  0  0  0  0  0  0
    3.6331    2.1000    0.0000 C   0  0  0  0  0  0  0  0  0  0  0  0
    2.4207    2.8000    0.0000 C   0  0  0  0  0  0  0  0  0  0  0  0
    0.0000    0.0024    0.0000 C   0  0  0  0  0  0  0  0  0  0  0  0
    4.8413    2.7976    0.0000 N   0  0  0  0  0  0  0  0  0  0  0  0
    6.0496    2.1000    0.0000 C   0  0  0  0  0  0  0  0  0  0  0  0
    7.2578    2.7976    0.0000 C   0  0  0  0  0  0  0  0  0  0  0  0
    6.0496    0.7049    0.0000 O   0  0  0  0  0  0  0  0  0  0  0  0
    8.4702    2.0976    0.0000 C   0  0  0  0  0  0  0  0  0  0  0  0
    9.6827    2.7976    0.0000 C   0  0  0  0  0  0  0  0  0  0  0  0
    9.6827    4.1976    0.0000 C   0  0  0  0  0  0  0  0  0  0  0  0
    8.4702    4.8976    0.0000 C   0  0  0  0  0  0  0  0  0  0  0  0
    7.2578    4.1976    0.0000 C   0  0  0  0  0  0  0  0  0  0  0  0
    8.4702    0.7024    0.0000 C   0  0  0  0  0  0  0  0  0  0  0  0
    8.4702    6.2927    0.0000 C   0  0  0  0  0  0  0  0  0  0  0  0
    9.6827    6.9927    0.0000 C   0  0  0  0  0  0  0  0  0  0  0  0
    9.6827    8.3927    0.0000 C   0  0  0  0  0  0  0  0  0  0  0  0
    8.4702    9.0927    0.0000 C   0  0  0  0  0  0  0  0  0  0  0  0
    7.2578    8.3927    0.0000 C   0  0  0  0  0  0  0  0  0  0  0  0
    7.2578    6.9927    0.0000 C   0  0  0  0  0  0  0  0  0  0  0  0
   10.8909    9.0903    0.0000 S   0  0  0  0  0  0  0  0  0  0  0  0
   12.1033    9.7903    0.0000 C   0  0  0  0  0  0  0  0  0  0  0  0
   10.1933   10.2985    0.0000 O   0  0  0  0  0  0  0  0  0  0  0  0
   11.5884    7.8821    0.0000 O   0  0  0  0  0  0  0  0  0  0  0  0
   13.3115    9.0927    0.0000 C   0  0  0  0  0  0  0  0  0  0  0  0
   11.0141    2.3649    0.0000 N   0  0  0  0  0  0  0  0  0  0  0  0
   11.8370    3.4976    0.0000 C   0  0  0  0  0  0  0  0  0  0  0  0
   11.0141    4.6302    0.0000 C   0  0  0  0  0  0  0  0  0  0  0  0
   13.2294    3.6439    0.0000 N   0  0  0  0  0  0  0  0  0  0  0  0
   13.7988    4.9229    0.0000 C   0  0  0  0  0  0  0  0  0  0  0  0
   12.9759    6.0555    0.0000 C   0  0  0  0  0  0  0  0  0  0  0  0
   11.5836    5.9092    0.0000 C   0  0  0  0  0  0  0  0  0  0  0  0
   13.5433    7.3300    0.0000 C   0  0  0  0  0  0  0  0  0  0  0  0
  1  2  1  0  0  0  0
  2  3  1  0  0  0  0
  3  4  1  0  0  0  0
  4  5  1  0  0  0  0
  5  6  1  0  0  0  0
  6  1  1  0  0  0  0
  2  7  1  0  0  0  0
  5  8  1  0  0  0  0
  8  9  1  0  0  0  0
  9 10  1  0  0  0  0
  9 11  2  0  0  0  0
 10 12  2  0  0  0  0
 12 13  1  0  0  0  0
 13 14  2  0  0  0  0
 14 15  1  0  0  0  0
 15 16  2  0  0  0  0
 16 10  1  0  0  0  0
 12 17  1  0  0  0  0
 15 18  1  0  0  0  0
 18 19  2  0  0  0  0
 19 20  1  0  0  0  0
 20 21  2  0  0  0  0
 21 22  1  0  0  0  0
 22 23  2  0  0  0  0
 23 18  1  0  0  0  0
 20 24  1  0  0  0  0
 24 25  1  0  0  0  0
 24 26  2  0  0  0  0
 24 27  2  0  0  0  0
 25 28  1  0  0  0  0
 13 29  1  0  0  0  0
 29 30  1  0  0  0  0
 30 31  2  0  0  0  0
 31 14  1  0  0  0  0
 30 32  1  0  0  0  0
 32 33  2  0  0  0  0
 33 34  1  0  0  0  0
 34 35  2  0  0  0  0
 35 31  1  0  0  0  0
 34 36  1  0  0  0  0
M  END
>  <Mol_ID> (155)
703

>  <Formula> (155)
C28H32N4O3S

>  <MolWeight> (155)
504.64368

>  <Cat> (155)
S2718

>  <Name> (155)
TAK-901

>  <Synonyms> (155)
N/A

>  <Target> (155)
Aurora Kinase

>  <Form> (155)
Free Base

>  <CAS> (155)
934541-31-8

>  <URL> (155)
http://www.selleckchem.com/products/tak-901.html

$$$$
TG1012009.cdx
csChFnd80/05071909292D

 36 39  0  0  0  0  0  0  0  0999 V2000
    4.8371    3.4927    0.0000 C   0  0  0  0  0  0  0  0  0  0  0  0
    4.8371    2.0927    0.0000 C   0  0  0  0  0  0  0  0  0  0  0  0
    6.0496    1.3927    0.0000 C   0  0  0  0  0  0  0  0  0  0  0  0
    7.2620    2.0927    0.0000 C   0  0  0  0  0  0  0  0  0  0  0  0
    7.2620    3.4927    0.0000 C   0  0  0  0  0  0  0  0  0  0  0  0
    6.0496    4.1927    0.0000 C   0  0  0  0  0  0  0  0  0  0  0  0
    8.4702    1.3951    0.0000 N   0  0  0  0  0  0  0  0  0  0  0  0
    9.6784    2.0927    0.0000 C   0  0  0  0  0  0  0  0  0  0  0  0
    3.6289    1.3951    0.0000 S   0  0  0  0  0  0  0  0  0  0  0  0
    2.4207    2.0927    0.0000 N   0  0  0  0  0  0  0  0  0  0  0  0
    1.2124    1.3951    0.0000 C   0  0  0  0  0  0  0  0  0  0  0  0
    0.0042    2.0927    0.0000 C   0  0  0  0  0  0  0  0  0  0  0  0
    1.2124    0.0000    0.0000 C   0  0  0  0  0  0  0  0  0  0  0  0
    0.0000    0.6951    0.0000 C   0  0  0  0  0  0  0  0  0  0  0  0
    2.9289    0.1827    0.0000 O   0  0  0  0  0  0  0  0  0  0  0  0
    4.3289    0.1827    0.0000 O   0  0  0  0  0  0  0  0  0  0  0  0
   10.8909    1.3927    0.0000 N   0  0  0  0  0  0  0  0  0  0  0  0
   12.1033    2.0927    0.0000 C   0  0  0  0  0  0  0  0  0  0  0  0
   12.1033    3.4927    0.0000 N   0  0  0  0  0  0  0  0  0  0  0  0
   10.8909    4.1927    0.0000 C   0  0  0  0  0  0  0  0  0  0  0  0
    9.6784    3.4927    0.0000 C   0  0  0  0  0  0  0  0  0  0  0  0
    8.4702    4.1903    0.0000 C   0  0  0  0  0  0  0  0  0  0  0  0
   13.3115    1.3951    0.0000 N   0  0  0  0  0  0  0  0  0  0  0  0
   14.5198    2.0927    0.0000 C   0  0  0  0  0  0  0  0  0  0  0  0
   15.7322    1.3927    0.0000 C   0  0  0  0  0  0  0  0  0  0  0  0
   16.9446    2.0927    0.0000 C   0  0  0  0  0  0  0  0  0  0  0  0
   16.9446    3.4927    0.0000 C   0  0  0  0  0  0  0  0  0  0  0  0
   15.7322    4.1927    0.0000 C   0  0  0  0  0  0  0  0  0  0  0  0
   14.5198    3.4927    0.0000 C   0  0  0  0  0  0  0  0  0  0  0  0
   18.1529    4.1903    0.0000 N   0  0  0  0  0  0  0  0  0  0  0  0
   19.3653    3.4903    0.0000 C   0  0  0  0  0  0  0  0  0  0  0  0
   20.5777    4.1903    0.0000 C   0  0  0  0  0  0  0  0  0  0  0  0
   20.5777    5.5903    0.0000 N   0  0  0  0  0  0  0  0  0  0  0  0
   19.3653    6.2903    0.0000 C   0  0  0  0  0  0  0  0  0  0  0  0
   18.1529    5.5903    0.0000 C   0  0  0  0  0  0  0  0  0  0  0  0
   21.7860    6.2879    0.0000 C   0  0  0  0  0  0  0  0  0  0  0  0
  1  2  2  0  0  0  0
  2  3  1  0  0  0  0
  3  4  2  0  0  0  0
  4  5  1  0  0  0  0
  5  6  2  0  0  0  0
  6  1  1  0  0  0  0
  4  7  1  0  0  0  0
  7  8  1  0  0  0  0
  2  9  1  0  0  0  0
  9 10  1  0  0  0  0
 10 11  1  0  0  0  0
 11 12  1  0  0  0  0
 11 13  1  0  0  0  0
 11 14  1  0  0  0  0
  9 15  2  0  0  0  0
  9 16  2  0  0  0  0
  8 17  2  0  0  0  0
 17 18  1  0  0  0  0
 18 19  2  0  0  0  0
 19 20  1  0  0  0  0
 20 21  2  0  0  0  0
 21  8  1  0  0  0  0
 21 22  1  0  0  0  0
 18 23  1  0  0  0  0
 23 24  1  0  0  0  0
 24 25  2  0  0  0  0
 25 26  1  0  0  0  0
 26 27  2  0  0  0  0
 27 28  1  0  0  0  0
 28 29  2  0  0  0  0
 29 24  1  0  0  0  0
 27 30  1  0  0  0  0
 30 31  1  0  0  0  0
 31 32  1  0  0  0  0
 32 33  1  0  0  0  0
 33 34  1  0  0  0  0
 34 35  1  0  0  0  0
 35 30  1  0  0  0  0
 33 36  1  0  0  0  0
M  END
>  <Mol_ID> (156)
704

>  <Formula> (156)
C26H35N7O2S

>  <MolWeight> (156)
509.6668

>  <Cat> (156)
S2692

>  <Name> (156)
TG101209

>  <Synonyms> (156)
N/A

>  <Target> (156)
Flt, JAK, c-RET

>  <Form> (156)
Free Base

>  <CAS> (156)
936091-14-4

>  <URL> (156)
http://www.selleckchem.com/products/tg101209.html

$$$$
AMG900.cdx
csChFnd80/05071909292D

 37 42  0  0  0  0  0  0  0  0999 V2000
    1.2082    6.2951    0.0000 C   0  0  0  0  0  0  0  0  0  0  0  0
    1.2082    4.8951    0.0000 C   0  0  0  0  0  0  0  0  0  0  0  0
    2.4207    4.1951    0.0000 C   0  0  0  0  0  0  0  0  0  0  0  0
    3.6331    4.8951    0.0000 C   0  0  0  0  0  0  0  0  0  0  0  0
    3.6331    6.2951    0.0000 N   0  0  0  0  0  0  0  0  0  0  0  0
    2.4207    6.9951    0.0000 C   0  0  0  0  0  0  0  0  0  0  0  0
    2.4207    2.8000    0.0000 C   0  0  0  0  0  0  0  0  0  0  0  0
    1.2082    2.1000    0.0000 N   0  0  0  0  0  0  0  0  0  0  0  0
    1.2082    0.7000    0.0000 C   0  0  0  0  0  0  0  0  0  0  0  0
    2.4207    0.0000    0.0000 N   0  0  0  0  0  0  0  0  0  0  0  0
    3.6331    0.7000    0.0000 C   0  0  0  0  0  0  0  0  0  0  0  0
    3.6331    2.1000    0.0000 C   0  0  0  0  0  0  0  0  0  0  0  0
    4.8413    4.1976    0.0000 O   0  0  0  0  0  0  0  0  0  0  0  0
    6.0496    4.8951    0.0000 C   0  0  0  0  0  0  0  0  0  0  0  0
    7.2620    4.1951    0.0000 C   0  0  0  0  0  0  0  0  0  0  0  0
    8.4744    4.8951    0.0000 C   0  0  0  0  0  0  0  0  0  0  0  0
    8.4744    6.2951    0.0000 C   0  0  0  0  0  0  0  0  0  0  0  0
    7.2620    6.9951    0.0000 C   0  0  0  0  0  0  0  0  0  0  0  0
    6.0496    6.2951    0.0000 C   0  0  0  0  0  0  0  0  0  0  0  0
    9.6827    6.9927    0.0000 N   0  0  0  0  0  0  0  0  0  0  0  0
   10.8909    6.2951    0.0000 C   0  0  0  0  0  0  0  0  0  0  0  0
   10.8909    4.8951    0.0000 C   0  0  0  0  0  0  0  0  0  0  0  0
   12.1033    4.1951    0.0000 C   0  0  0  0  0  0  0  0  0  0  0  0
   13.3157    4.8951    0.0000 C   0  0  0  0  0  0  0  0  0  0  0  0
   13.3157    6.2951    0.0000 N   0  0  0  0  0  0  0  0  0  0  0  0
   12.1033    6.9951    0.0000 N   0  0  0  0  0  0  0  0  0  0  0  0
    9.6784    4.1951    0.0000 C   0  0  0  0  0  0  0  0  0  0  0  0
    9.6784    2.7951    0.0000 C   0  0  0  0  0  0  0  0  0  0  0  0
   10.8909    2.0951    0.0000 C   0  0  0  0  0  0  0  0  0  0  0  0
   12.1033    2.7951    0.0000 C   0  0  0  0  0  0  0  0  0  0  0  0
   14.5240    4.1976    0.0000 C   0  0  0  0  0  0  0  0  0  0  0  0
   14.6703    2.8052    0.0000 S   0  0  0  0  0  0  0  0  0  0  0  0
   16.0397    2.5142    0.0000 C   0  0  0  0  0  0  0  0  0  0  0  0
   16.7397    3.7266    0.0000 C   0  0  0  0  0  0  0  0  0  0  0  0
   15.8029    4.7670    0.0000 C   0  0  0  0  0  0  0  0  0  0  0  0
    0.0000    0.0024    0.0000 N   0  0  0  0  0  0  0  0  0  0  0  0
   18.1272    3.8724    0.0000 C   0  0  0  0  0  0  0  0  0  0  0  0
  1  2  2  0  0  0  0
  2  3  1  0  0  0  0
  3  4  2  0  0  0  0
  4  5  1  0  0  0  0
  5  6  2  0  0  0  0
  6  1  1  0  0  0  0
  3  7  1  0  0  0  0
  7  8  2  0  0  0  0
  8  9  1  0  0  0  0
  9 10  2  0  0  0  0
 10 11  1  0  0  0  0
 11 12  2  0  0  0  0
 12  7  1  0  0  0  0
  4 13  1  0  0  0  0
 13 14  1  0  0  0  0
 14 15  2  0  0  0  0
 15 16  1  0  0  0  0
 16 17  2  0  0  0  0
 17 18  1  0  0  0  0
 18 19  2  0  0  0  0
 19 14  1  0  0  0  0
 17 20  1  0  0  0  0
 20 21  1  0  0  0  0
 21 22  1  0  0  0  0
 22 23  2  0  0  0  0
 23 24  1  0  0  0  0
 24 25  2  0  0  0  0
 25 26  1  0  0  0  0
 26 21  2  0  0  0  0
 22 27  1  0  0  0  0
 27 28  2  0  0  0  0
 28 29  1  0  0  0  0
 29 30  2  0  0  0  0
 30 23  1  0  0  0  0
 24 31  1  0  0  0  0
 31 32  1  0  0  0  0
 32 33  1  0  0  0  0
 33 34  2  0  0  0  0
 34 35  1  0  0  0  0
 35 31  2  0  0  0  0
  9 36  1  0  0  0  0
 34 37  1  0  0  0  0
M  END
>  <Mol_ID> (157)
706

>  <Formula> (157)
C28H21N7OS

>  <MolWeight> (157)
503.57764

>  <Cat> (157)
S2719

>  <Name> (157)
AMG 900

>  <Synonyms> (157)
N/A

>  <Target> (157)
Aurora Kinase

>  <Form> (157)
Free Base

>  <CAS> (157)
945595-80-2

>  <URL> (157)
http://www.selleckchem.com/products/amg-900.html

$$$$

csChFnd80/05071909292D

 34 34  0  0  0  0  0  0  0  0999 V2000
    2.8002   -5.6027    0.0000 C   0  0  0  0  0  0  0  0  0  0  0  0
    2.8002   -7.0076    0.0000 C   0  0  0  0  0  0  0  0  0  0  0  0
    4.0169   -7.7100    0.0000 C   0  0  0  0  0  0  0  0  0  0  0  0
    5.2335   -7.0076    0.0000 C   0  0  0  0  0  0  0  0  0  0  0  0
    5.2335   -5.6027    0.0000 C   0  0  0  0  0  0  0  0  0  0  0  0
    4.0169   -4.9002    0.0000 C   0  0  0  0  0  0  0  0  0  0  0  0
    6.4502   -7.7100    0.0000 C   0  0  0  0  0  0  0  0  0  0  0  0
    7.6668   -7.0076    0.0000 C   0  0  0  0  0  0  0  0  0  0  0  0
    7.6668   -5.6027    0.0000 C   0  0  0  0  0  0  0  0  0  0  0  0
    6.4502   -4.9002    0.0000 C   0  0  0  0  0  0  0  0  0  0  0  0
    8.8835   -7.7100    0.0000 C   0  0  0  0  0  0  0  0  0  0  0  0
   10.1002   -7.0076    0.0000 C   0  0  0  0  0  0  0  0  0  0  0  0
   10.1002   -5.6027    0.0000 C   0  0  0  0  0  0  0  0  0  0  0  0
    8.8835   -4.9002    0.0000 C   0  0  0  0  0  0  0  0  0  0  0  0
    4.0169   -3.5003    0.0000 O   0  0  0  0  0  0  0  0  0  0  0  0
    4.0169   -9.1100    0.0000 O   0  0  0  0  0  0  0  0  0  0  0  0
    6.4502   -3.5003    0.0000 O   0  0  0  0  0  0  0  0  0  0  0  0
    6.4502   -9.1100    0.0000 O   0  0  0  0  0  0  0  0  0  0  0  0
    8.8835   -3.5003    0.0000 N   0  0  0  0  0  0  0  0  0  0  0  0
    8.8835   -9.1100    0.0000 N   0  0  0  0  0  0  0  0  0  0  0  0
   10.0959   -2.8002    0.0000 C   0  0  0  0  0  0  0  0  0  0  0  0
   11.3084   -3.5003    0.0000 C   0  0  0  0  0  0  0  0  0  0  0  0
   12.5208   -2.8002    0.0000 N   0  0  0  0  0  0  0  0  0  0  0  0
   13.7332   -3.5003    0.0000 C   0  0  0  0  0  0  0  0  0  0  0  0
   14.9457   -2.8002    0.0000 C   0  0  0  0  0  0  0  0  0  0  0  0
   16.1581   -3.5003    0.0000 O   0  0  0  0  0  0  0  0  0  0  0  0
   10.0959   -9.8100    0.0000 C   0  0  0  0  0  0  0  0  0  0  0  0
   11.3084   -9.1100    0.0000 C   0  0  0  0  0  0  0  0  0  0  0  0
   12.5208   -9.8100    0.0000 N   0  0  0  0  0  0  0  0  0  0  0  0
   13.7332   -9.1100    0.0000 C   0  0  0  0  0  0  0  0  0  0  0  0
   14.9457   -9.8100    0.0000 C   0  0  0  0  0  0  0  0  0  0  0  0
   16.1581   -9.1100    0.0000 O   0  0  0  0  0  0  0  0  0  0  0  0
    8.8586   -4.1267    0.0000 Cl  0  0  0  0  0  0  0  0  0  0  0  0
    7.4538   -4.1267    0.0000 Cl  0  0  0  0  0  0  0  0  0  0  0  0
  1  2  2  0  0  0  0
  2  3  1  0  0  0  0
  3  4  2  0  0  0  0
  4  5  1  0  0  0  0
  5  6  2  0  0  0  0
  6  1  1  0  0  0  0
  4  7  1  0  0  0  0
  7  8  1  0  0  0  0
  8  9  2  0  0  0  0
  9 10  1  0  0  0  0
 10  5  1  0  0  0  0
  8 11  1  0  0  0  0
 11 12  2  0  0  0  0
 12 13  1  0  0  0  0
 13 14  2  0  0  0  0
 14  9  1  0  0  0  0
  6 15  1  0  0  0  0
  3 16  1  0  0  0  0
 10 17  2  0  0  0  0
  7 18  2  0  0  0  0
 14 19  1  0  0  0  0
 11 20  1  0  0  0  0
 19 21  1  0  0  0  0
 21 22  1  0  0  0  0
 22 23  1  0  0  0  0
 23 24  1  0  0  0  0
 24 25  1  0  0  0  0
 25 26  1  0  0  0  0
 20 27  1  0  0  0  0
 27 28  1  0  0  0  0
 28 29  1  0  0  0  0
 29 30  1  0  0  0  0
 30 31  1  0  0  0  0
 31 32  1  0  0  0  0
M  END
>  <Mol_ID> (158)
709

>  <Formula> (158)
C22H30Cl2N4O6

>  <MolWeight> (158)
517.4028

>  <Cat> (158)
S2485

>  <Name> (158)
Mitoxantrone 2HCl

>  <Synonyms> (158)
NSC-301739

>  <Target> (158)
Topoisomerase

>  <Form> (158)
Dihydrochloride

>  <CAS> (158)
70476-82-3

>  <URL> (158)
http://www.selleckchem.com/products/Mitoxantrone.html

$$$$
GSK2126458.cdx
csChFnd80/05071909292D

 36 40  0  0  0  0  0  0  0  0999 V2000
    2.4249    7.7000    0.0000 C   0  0  0  0  0  0  0  0  0  0  0  0
    1.2124    8.4000    0.0000 C   0  0  0  0  0  0  0  0  0  0  0  0
    1.2124    9.8000    0.0000 C   0  0  0  0  0  0  0  0  0  0  0  0
    2.4249   10.5000    0.0000 C   0  0  0  0  0  0  0  0  0  0  0  0
    3.6373    9.8000    0.0000 C   0  0  0  0  0  0  0  0  0  0  0  0
    3.6373    8.4000    0.0000 C   0  0  0  0  0  0  0  0  0  0  0  0
    2.4249    6.3000    0.0000 S   0  0  0  0  0  0  0  0  0  0  0  0
    1.0249    6.3000    0.0000 O   0  0  0  0  0  0  0  0  0  0  0  0
    3.8249    6.3000    0.0000 O   0  0  0  0  0  0  0  0  0  0  0  0
    2.4249    4.9000    0.0000 N   0  0  0  0  0  0  0  0  0  0  0  0
    3.6373    2.8000    0.0000 C   0  0  0  0  0  0  0  0  0  0  0  0
    3.6373    4.2000    0.0000 C   0  0  0  0  0  0  0  0  0  0  0  0
    4.8497    4.9000    0.0000 C   0  0  0  0  0  0  0  0  0  0  0  0
    6.0622    4.2000    0.0000 C   0  0  0  0  0  0  0  0  0  0  0  0
    6.0622    2.8000    0.0000 C   0  0  0  0  0  0  0  0  0  0  0  0
    4.8497    2.1000    0.0000 N   0  0  0  0  0  0  0  0  0  0  0  0
   10.9119    7.0000    0.0000 N   0  0  0  0  0  0  0  0  0  0  0  0
   12.1244    6.3000    0.0000 C   0  0  0  0  0  0  0  0  0  0  0  0
   12.1244    4.9000    0.0000 C   0  0  0  0  0  0  0  0  0  0  0  0
   10.9119    4.2000    0.0000 C   0  0  0  0  0  0  0  0  0  0  0  0
    9.6995    4.9000    0.0000 C   0  0  0  0  0  0  0  0  0  0  0  0
    8.4870    4.2000    0.0000 C   0  0  0  0  0  0  0  0  0  0  0  0
    7.2746    4.9000    0.0000 C   0  0  0  0  0  0  0  0  0  0  0  0
    7.2746    6.3000    0.0000 C   0  0  0  0  0  0  0  0  0  0  0  0
    8.4870    7.0000    0.0000 C   0  0  0  0  0  0  0  0  0  0  0  0
    9.6995    6.3000    0.0000 C   0  0  0  0  0  0  0  0  0  0  0  0
    9.6995    2.1000    0.0000 C   0  0  0  0  0  0  0  0  0  0  0  0
   10.9119    2.8000    0.0000 C   0  0  0  0  0  0  0  0  0  0  0  0
   12.1244    2.1000    0.0000 C   0  0  0  0  0  0  0  0  0  0  0  0
   12.1244    0.7000    0.0000 C   0  0  0  0  0  0  0  0  0  0  0  0
   10.9119    0.0000    0.0000 N   0  0  0  0  0  0  0  0  0  0  0  0
    9.6995    0.7000    0.0000 N   0  0  0  0  0  0  0  0  0  0  0  0
    2.4249    2.1000    0.0000 O   0  0  0  0  0  0  0  0  0  0  0  0
    1.2124    2.8000    0.0000 C   0  0  0  0  0  0  0  0  0  0  0  0
    2.4249   11.9000    0.0000 F   0  0  0  0  0  0  0  0  0  0  0  0
    0.0000    7.7000    0.0000 F   0  0  0  0  0  0  0  0  0  0  0  0
  1  2  1  0  0  0  0
  2  3  2  0  0  0  0
  3  4  1  0  0  0  0
  4  5  2  0  0  0  0
  5  6  1  0  0  0  0
  1  6  2  0  0  0  0
  7  8  2  0  0  0  0
  7  9  2  0  0  0  0
  7 10  1  0  0  0  0
  1  7  1  0  0  0  0
 11 12  1  0  0  0  0
 12 13  2  0  0  0  0
 13 14  1  0  0  0  0
 14 15  2  0  0  0  0
 15 16  1  0  0  0  0
 11 16  2  0  0  0  0
 17 18  2  0  0  0  0
 18 19  1  0  0  0  0
 19 20  2  0  0  0  0
 20 21  1  0  0  0  0
 21 22  2  0  0  0  0
 22 23  1  0  0  0  0
 23 24  2  0  0  0  0
 24 25  1  0  0  0  0
 25 26  2  0  0  0  0
 17 26  1  0  0  0  0
 21 26  1  0  0  0  0
 27 28  1  0  0  0  0
 28 29  2  0  0  0  0
 29 30  1  0  0  0  0
 30 31  2  0  0  0  0
 31 32  1  0  0  0  0
 27 32  2  0  0  0  0
 20 28  1  0  0  0  0
 14 23  1  0  0  0  0
 33 34  1  0  0  0  0
 11 33  1  0  0  0  0
 10 12  1  0  0  0  0
  4 35  1  0  0  0  0
  2 36  1  0  0  0  0
M  END
>  <Mol_ID> (159)
719

>  <Formula> (159)
C25H17F2N5O3S

>  <MolWeight> (159)
505.4959864

>  <Cat> (159)
S2658

>  <Name> (159)
Omipalisib (GSK2126458, GSK458)

>  <Synonyms> (159)
N/A 

>  <Target> (159)
PI3K, mTOR

>  <Form> (159)
Free Base

>  <CAS> (159)
1086062-66-9 

>  <URL> (159)
http://www.selleckchem.com/products/gsk2126458.html

$$$$
CP-690550 citrate.cdx
csChFnd80/05071909292D

 36 37  0  0  0  0  0  0  0  0999 V2000
    0.0000    2.1000    0.0000 N   0  0  0  0  0  0  0  0  0  0  0  0
    0.0000    0.7000    0.0000 C   0  0  0  0  0  0  0  0  0  0  0  0
    1.2124    0.0000    0.0000 N   0  0  0  0  0  0  0  0  0  0  0  0
    2.4249    0.7000    0.0000 C   0  0  0  0  0  0  0  0  0  0  0  0
    2.4249    2.1000    0.0000 C   0  0  0  0  0  0  0  0  0  0  0  0
    1.2124    2.8000    0.0000 C   0  0  0  0  0  0  0  0  0  0  0  0
    3.7564    0.2674    0.0000 N   0  0  0  0  0  0  0  0  0  0  0  0
    4.5793    1.4000    0.0000 C   0  0  0  0  0  0  0  0  0  0  0  0
    3.7564    2.5326    0.0000 C   0  0  0  0  0  0  0  0  0  0  0  0
    1.2124    4.1951    0.0000 N   0  0  0  0  0  0  0  0  0  0  0  0
    0.0042    4.8927    0.0000 C   0  0  0  0  0  0  0  0  0  0  0  0
    2.4207    4.8927    0.0000 C   0  0  1  0  0  0  0  0  0  0  0  0
    3.6331    4.1927    0.0000 C   0  0  0  0  0  0  0  0  0  0  0  0
    4.8455    4.8927    0.0000 N   0  0  0  0  0  0  0  0  0  0  0  0
    4.8455    6.2927    0.0000 C   0  0  0  0  0  0  0  0  0  0  0  0
    3.6331    6.9927    0.0000 C   0  0  0  0  0  0  0  0  0  0  0  0
    2.4207    6.2927    0.0000 C   0  0  1  0  0  0  0  0  0  0  0  0
    1.2124    6.9903    0.0000 C   0  0  0  0  0  0  0  0  0  0  0  0
    6.0538    4.1951    0.0000 C   0  0  0  0  0  0  0  0  0  0  0  0
    6.0538    2.8000    0.0000 O   0  0  0  0  0  0  0  0  0  0  0  0
    7.2620    4.8927    0.0000 C   0  0  0  0  0  0  0  0  0  0  0  0
    8.4702    4.1951    0.0000 C   0  0  0  0  0  0  0  0  0  0  0  0
    9.6827    3.4951    0.0000 N   0  0  0  0  0  0  0  0  0  0  0  0
   14.5198    1.6917    0.0000 C   0  0  0  0  0  0  0  0  0  0  0  0
   15.7322    2.3917    0.0000 C   0  0  0  0  0  0  0  0  0  0  0  0
   15.7322    3.7868    0.0000 C   0  0  0  0  0  0  0  0  0  0  0  0
   16.9404    1.6941    0.0000 C   0  0  0  0  0  0  0  0  0  0  0  0
   15.7322    0.9917    0.0000 O   0  0  0  0  0  0  0  0  0  0  0  0
   16.9404    4.4844    0.0000 O   0  0  0  0  0  0  0  0  0  0  0  0
   14.5240    4.4844    0.0000 O   0  0  0  0  0  0  0  0  0  0  0  0
   18.1486    2.3917    0.0000 C   0  0  0  0  0  0  0  0  0  0  0  0
   19.3569    1.6941    0.0000 O   0  0  0  0  0  0  0  0  0  0  0  0
   18.1486    3.7868    0.0000 O   0  0  0  0  0  0  0  0  0  0  0  0
   13.3115    2.3892    0.0000 C   0  0  0  0  0  0  0  0  0  0  0  0
   12.1033    1.6917    0.0000 O   0  0  0  0  0  0  0  0  0  0  0  0
   13.3115    3.7844    0.0000 O   0  0  0  0  0  0  0  0  0  0  0  0
  1  2  2  0  0  0  0
  2  3  1  0  0  0  0
  3  4  2  0  0  0  0
  4  5  1  0  0  0  0
  5  6  2  0  0  0  0
  6  1  1  0  0  0  0
  4  7  1  0  0  0  0
  7  8  1  0  0  0  0
  8  9  2  0  0  0  0
  9  5  1  0  0  0  0
  6 10  1  0  0  0  0
 10 11  1  0  0  0  0
 12 10  1  6  0  0  0
 12 13  1  0  0  0  0
 13 14  1  0  0  0  0
 14 15  1  0  0  0  0
 15 16  1  0  0  0  0
 16 17  1  0  0  0  0
 17 12  1  0  0  0  0
 17 18  1  6  0  0  0
 14 19  1  0  0  0  0
 19 20  2  0  0  0  0
 19 21  1  0  0  0  0
 21 22  1  0  0  0  0
 22 23  3  0  0  0  0
 24 25  1  0  0  0  0
 25 26  1  0  0  0  0
 25 27  1  0  0  0  0
 25 28  1  0  0  0  0
 26 29  1  0  0  0  0
 26 30  2  0  0  0  0
 27 31  1  0  0  0  0
 31 32  2  0  0  0  0
 31 33  1  0  0  0  0
 24 34  1  0  0  0  0
 34 35  1  0  0  0  0
 34 36  2  0  0  0  0
M  END
>  <Mol_ID> (160)
748

>  <Formula> (160)
C22H28N6O8

>  <MolWeight> (160)
504.49312

>  <Cat> (160)
S5001

>  <Name> (160)
Tofacitinib citrate (CP-690550 citrate)

>  <Synonyms> (160)
N/A 

>  <Target> (160)
JAK

>  <Form> (160)
Citrate

>  <CAS> (160)
540737-29-9

>  <URL> (160)
http://www.selleckchem.com/products/CP-690550.html

$$$$
CAL-1011.cdx
csChFnd80/05071909292D

 31 35  0  0  0  0  0  0  0  0999 V2000
    0.0000    7.8133    0.0000 C   0  0  0  0  0  0  0  0  0  0  0  0
    0.0000    6.4133    0.0000 C   0  0  0  0  0  0  0  0  0  0  0  0
    1.2124    5.7133    0.0000 C   0  0  0  0  0  0  0  0  0  0  0  0
    2.4249    6.4133    0.0000 C   0  0  0  0  0  0  0  0  0  0  0  0
    2.4249    7.8133    0.0000 C   0  0  0  0  0  0  0  0  0  0  0  0
    1.2124    8.5133    0.0000 C   0  0  0  0  0  0  0  0  0  0  0  0
    3.6373    5.7133    0.0000 N   0  0  0  0  0  0  0  0  0  0  0  0
    4.8497    6.4133    0.0000 C   0  0  0  0  0  0  0  0  0  0  0  0
    4.8497    7.8133    0.0000 N   0  0  0  0  0  0  0  0  0  0  0  0
    3.6373    8.5133    0.0000 C   0  0  0  0  0  0  0  0  0  0  0  0
    1.2124    9.9085    0.0000 F   0  0  0  0  0  0  0  0  0  0  0  0
    3.6373    9.9085    0.0000 O   0  0  0  0  0  0  0  0  0  0  0  0
    6.0580    8.5109    0.0000 C   0  0  0  0  0  0  0  0  0  0  0  0
    6.0580    5.7157    0.0000 C   0  0  1  0  0  0  0  0  0  0  0  0
    6.0580    4.3157    0.0000 N   0  0  0  0  0  0  0  0  0  0  0  0
    7.2704    3.6157    0.0000 C   0  0  0  0  0  0  0  0  0  0  0  0
    7.2704    2.2157    0.0000 C   0  0  0  0  0  0  0  0  0  0  0  0
    8.4828    1.5157    0.0000 C   0  0  0  0  0  0  0  0  0  0  0  0
    9.6953    2.2157    0.0000 N   0  0  0  0  0  0  0  0  0  0  0  0
    9.6953    3.6157    0.0000 C   0  0  0  0  0  0  0  0  0  0  0  0
    8.4828    4.3157    0.0000 N   0  0  0  0  0  0  0  0  0  0  0  0
    6.2300    1.2790    0.0000 N   0  0  0  0  0  0  0  0  0  0  0  0
    6.7994    0.0000    0.0000 C   0  0  0  0  0  0  0  0  0  0  0  0
    8.1918    0.1463    0.0000 N   0  0  0  0  0  0  0  0  0  0  0  0
    7.2704    7.8109    0.0000 C   0  0  0  0  0  0  0  0  0  0  0  0
    8.4828    8.5109    0.0000 C   0  0  0  0  0  0  0  0  0  0  0  0
    8.4828    9.9109    0.0000 C   0  0  0  0  0  0  0  0  0  0  0  0
    7.2704   10.6109    0.0000 C   0  0  0  0  0  0  0  0  0  0  0  0
    6.0580    9.9109    0.0000 C   0  0  0  0  0  0  0  0  0  0  0  0
    7.2662    6.4133    0.0000 C   0  0  0  0  0  0  0  0  0  0  0  0
    8.4786    5.7133    0.0000 C   0  0  0  0  0  0  0  0  0  0  0  0
  1  2  2  0  0  0  0
  2  3  1  0  0  0  0
  3  4  2  0  0  0  0
  4  5  1  0  0  0  0
  5  6  2  0  0  0  0
  6  1  1  0  0  0  0
  4  7  1  0  0  0  0
  7  8  2  0  0  0  0
  8  9  1  0  0  0  0
  9 10  1  0  0  0  0
 10  5  1  0  0  0  0
  6 11  1  0  0  0  0
 10 12  2  0  0  0  0
  9 13  1  0  0  0  0
  8 14  1  0  0  0  0
 14 15  1  0  0  0  0
 15 16  1  0  0  0  0
 16 17  2  0  0  0  0
 17 18  1  0  0  0  0
 18 19  2  0  0  0  0
 19 20  1  0  0  0  0
 20 21  2  0  0  0  0
 21 16  1  0  0  0  0
 17 22  1  0  0  0  0
 22 23  2  0  0  0  0
 23 24  1  0  0  0  0
 24 18  1  0  0  0  0
 13 25  2  0  0  0  0
 25 26  1  0  0  0  0
 26 27  2  0  0  0  0
 27 28  1  0  0  0  0
 28 29  2  0  0  0  0
 29 13  1  0  0  0  0
 14 30  1  6  0  0  0
 30 31  1  0  0  0  0
M  END
>  <Mol_ID> (161)
750

>  <Formula> (161)
C22H18FN7O

>  <MolWeight> (161)
415.4230232

>  <Cat> (161)
S2226

>  <Name> (161)
CAL-101 (GS-1101)

>  <Synonyms> (161)
CAL101

>  <Target> (161)
PI3K 

>  <Form> (161)
Free Base

>  <CAS> (161)
870281-82-6

>  <URL> (161)
http://www.selleckchem.com/products/CAL-101.html

$$$$
BI 6727.cdx
csChFnd80/05071909292D

 45 50  0  0  0  0  0  0  0  0999 V2000
    2.4165    6.2976    0.0000 C   0  0  2  0  0  0  0  0  0  0  0  0
    2.4165    4.8976    0.0000 C   0  0  0  0  0  0  0  0  0  0  0  0
    3.6289    4.1976    0.0000 N   0  0  0  0  0  0  0  0  0  0  0  0
    4.8413    4.8976    0.0000 C   0  0  0  0  0  0  0  0  0  0  0  0
    4.8413    6.2976    0.0000 C   0  0  0  0  0  0  0  0  0  0  0  0
    3.6289    6.9976    0.0000 N   0  0  0  0  0  0  0  0  0  0  0  0
    6.0538    4.1976    0.0000 C   0  0  0  0  0  0  0  0  0  0  0  0
    7.2662    4.8976    0.0000 N   0  0  0  0  0  0  0  0  0  0  0  0
    7.2662    6.2976    0.0000 C   0  0  0  0  0  0  0  0  0  0  0  0
    6.0538    6.9976    0.0000 N   0  0  0  0  0  0  0  0  0  0  0  0
    1.2082    4.2000    0.0000 O   0  0  0  0  0  0  0  0  0  0  0  0
    3.6289    2.8024    0.0000 C   0  0  0  0  0  0  0  0  0  0  0  0
    1.2082    6.9951    0.0000 C   0  0  0  0  0  0  0  0  0  0  0  0
    0.0000    6.2976    0.0000 C   0  0  0  0  0  0  0  0  0  0  0  0
    3.6289    8.3927    0.0000 C   0  0  0  0  0  0  0  0  0  0  0  0
    2.4207    9.0903    0.0000 C   0  0  0  0  0  0  0  0  0  0  0  0
    4.8371    9.0903    0.0000 C   0  0  0  0  0  0  0  0  0  0  0  0
    8.4744    6.9951    0.0000 N   0  0  0  0  0  0  0  0  0  0  0  0
    9.6869    6.2951    0.0000 C   0  0  0  0  0  0  0  0  0  0  0  0
    9.6869    4.8951    0.0000 C   0  0  0  0  0  0  0  0  0  0  0  0
   10.8993    4.1951    0.0000 C   0  0  0  0  0  0  0  0  0  0  0  0
   12.1117    4.8951    0.0000 C   0  0  0  0  0  0  0  0  0  0  0  0
   12.1117    6.2951    0.0000 C   0  0  0  0  0  0  0  0  0  0  0  0
   10.8993    6.9951    0.0000 C   0  0  0  0  0  0  0  0  0  0  0  0
   10.8993    8.3903    0.0000 O   0  0  0  0  0  0  0  0  0  0  0  0
   12.1075    9.0879    0.0000 C   0  0  0  0  0  0  0  0  0  0  0  0
   13.3200    4.1976    0.0000 C   0  0  0  0  0  0  0  0  0  0  0  0
   14.5282    4.8951    0.0000 N   0  0  0  0  0  0  0  0  0  0  0  0
   13.3200    2.8024    0.0000 O   0  0  0  0  0  0  0  0  0  0  0  0
   15.7364    4.1976    0.0000 C   0  0  2  0  0  0  0  0  0  0  0  0
   15.7364    2.7976    0.0000 C   0  0  0  0  0  0  0  0  0  0  0  0
   16.9488    2.0976    0.0000 C   0  0  0  0  0  0  0  0  0  0  0  0
   18.1613    2.7976    0.0000 C   0  0  2  0  0  0  0  0  0  0  0  0
   18.1613    4.1976    0.0000 C   0  0  0  0  0  0  0  0  0  0  0  0
   16.9488    4.8976    0.0000 C   0  0  0  0  0  0  0  0  0  0  0  0
   19.3695    2.1000    0.0000 N   0  0  0  0  0  0  0  0  0  0  0  0
   19.3695    0.7000    0.0000 C   0  0  0  0  0  0  0  0  0  0  0  0
   20.5819    0.0000    0.0000 C   0  0  0  0  0  0  0  0  0  0  0  0
   21.7944    0.7000    0.0000 N   0  0  0  0  0  0  0  0  0  0  0  0
   21.7944    2.1000    0.0000 C   0  0  0  0  0  0  0  0  0  0  0  0
   20.5819    2.8000    0.0000 C   0  0  0  0  0  0  0  0  0  0  0  0
   23.0026    0.0024    0.0000 C   0  0  0  0  0  0  0  0  0  0  0  0
   24.2108    0.7000    0.0000 C   0  0  0  0  0  0  0  0  0  0  0  0
   25.6108    0.7000    0.0000 C   0  0  0  0  0  0  0  0  0  0  0  0
   24.9108    1.9124    0.0000 C   0  0  0  0  0  0  0  0  0  0  0  0
  1  2  1  0  0  0  0
  2  3  1  0  0  0  0
  3  4  1  0  0  0  0
  4  5  2  0  0  0  0
  5  6  1  0  0  0  0
  6  1  1  0  0  0  0
  4  7  1  0  0  0  0
  7  8  2  0  0  0  0
  8  9  1  0  0  0  0
  9 10  2  0  0  0  0
 10  5  1  0  0  0  0
  2 11  2  0  0  0  0
  3 12  1  0  0  0  0
  1 13  1  1  0  0  0
 13 14  1  0  0  0  0
  6 15  1  0  0  0  0
 15 16  1  0  0  0  0
 15 17  1  0  0  0  0
  9 18  1  0  0  0  0
 18 19  1  0  0  0  0
 19 20  2  0  0  0  0
 20 21  1  0  0  0  0
 21 22  2  0  0  0  0
 22 23  1  0  0  0  0
 23 24  2  0  0  0  0
 24 19  1  0  0  0  0
 24 25  1  0  0  0  0
 25 26  1  0  0  0  0
 22 27  1  0  0  0  0
 27 28  1  0  0  0  0
 27 29  2  0  0  0  0
 30 28  1  1  0  0  0
 30 31  1  0  0  0  0
 31 32  1  0  0  0  0
 32 33  1  0  0  0  0
 33 34  1  0  0  0  0
 34 35  1  0  0  0  0
 35 30  1  0  0  0  0
 33 36  1  6  0  0  0
 36 37  1  0  0  0  0
 37 38  1  0  0  0  0
 38 39  1  0  0  0  0
 39 40  1  0  0  0  0
 40 41  1  0  0  0  0
 41 36  1  0  0  0  0
 39 42  1  0  0  0  0
 42 43  1  0  0  0  0
 43 44  1  0  0  0  0
 44 45  1  0  0  0  0
 45 43  1  0  0  0  0
M  END
>  <Mol_ID> (162)
751

>  <Formula> (162)
C34H50N8O3

>  <MolWeight> (162)
618.8126

>  <Cat> (162)
S2235

>  <Name> (162)
BI6727 (Volasertib)

>  <Synonyms> (162)
N/A 

>  <Target> (162)
PLK 

>  <Form> (162)
Free Base

>  <CAS> (162)
755038-65-4

>  <URL> (162)
http://www.selleckchem.com/products/BI6727-Volasertib.html

$$$$
PIK-294.cdx
csChFnd80/05071909292D

 37 42  0  0  0  0  0  0  0  0999 V2000
    0.0000    8.1897    0.0000 N   0  0  0  0  0  0  0  0  0  0  0  0
    0.0000    6.7897    0.0000 C   0  0  0  0  0  0  0  0  0  0  0  0
    1.2124    6.0897    0.0000 N   0  0  0  0  0  0  0  0  0  0  0  0
    2.4249    6.7897    0.0000 C   0  0  0  0  0  0  0  0  0  0  0  0
    2.4249    8.1897    0.0000 C   0  0  0  0  0  0  0  0  0  0  0  0
    1.2124    8.8897    0.0000 C   0  0  0  0  0  0  0  0  0  0  0  0
    3.7564    6.3571    0.0000 N   0  0  0  0  0  0  0  0  0  0  0  0
    4.5793    7.4897    0.0000 N   0  0  0  0  0  0  0  0  0  0  0  0
    3.7564    8.6223    0.0000 C   0  0  0  0  0  0  0  0  0  0  0  0
    1.2124   10.2848    0.0000 N   0  0  0  0  0  0  0  0  0  0  0  0
    4.1875    5.0302    0.0000 C   0  0  0  0  0  0  0  0  0  0  0  0
    4.1875    9.9492    0.0000 C   0  0  0  0  0  0  0  0  0  0  0  0
    5.5569   10.2403    0.0000 C   0  0  0  0  0  0  0  0  0  0  0  0
    5.9895   11.5717    0.0000 C   0  0  0  0  0  0  0  0  0  0  0  0
    5.0527   12.6121    0.0000 C   0  0  0  0  0  0  0  0  0  0  0  0
    3.6833   12.3211    0.0000 C   0  0  0  0  0  0  0  0  0  0  0  0
    3.2507   10.9896    0.0000 C   0  0  0  0  0  0  0  0  0  0  0  0
    7.3542   11.8618    0.0000 O   0  0  0  0  0  0  0  0  0  0  0  0
    5.5521    4.7402    0.0000 C   0  0  0  0  0  0  0  0  0  0  0  0
    5.9847    3.4087    0.0000 N   0  0  0  0  0  0  0  0  0  0  0  0
    7.3542    3.1176    0.0000 C   0  0  0  0  0  0  0  0  0  0  0  0
    8.2909    4.1580    0.0000 C   0  0  0  0  0  0  0  0  0  0  0  0
    7.8583    5.4895    0.0000 C   0  0  0  0  0  0  0  0  0  0  0  0
    6.4889    5.7806    0.0000 N   0  0  0  0  0  0  0  0  0  0  0  0
    7.7853    1.7907    0.0000 O   0  0  0  0  0  0  0  0  0  0  0  0
    5.0512    2.3719    0.0000 C   0  0  0  0  0  0  0  0  0  0  0  0
    3.6818    2.6630    0.0000 C   0  0  0  0  0  0  0  0  0  0  0  0
    2.7450    1.6226    0.0000 C   0  0  0  0  0  0  0  0  0  0  0  0
    3.1777    0.2911    0.0000 C   0  0  0  0  0  0  0  0  0  0  0  0
    4.5471    0.0000    0.0000 C   0  0  0  0  0  0  0  0  0  0  0  0
    5.4838    1.0404    0.0000 C   0  0  0  0  0  0  0  0  0  0  0  0
    9.6603    3.8669    0.0000 C   0  0  0  0  0  0  0  0  0  0  0  0
   10.5971    4.9073    0.0000 C   0  0  0  0  0  0  0  0  0  0  0  0
   10.1645    6.2388    0.0000 C   0  0  0  0  0  0  0  0  0  0  0  0
    8.7951    6.5299    0.0000 C   0  0  0  0  0  0  0  0  0  0  0  0
   10.0915    2.5401    0.0000 C   0  0  0  0  0  0  0  0  0  0  0  0
    3.2507    3.9898    0.0000 C   0  0  0  0  0  0  0  0  0  0  0  0
  1  2  2  0  0  0  0
  2  3  1  0  0  0  0
  3  4  2  0  0  0  0
  4  5  1  0  0  0  0
  5  6  2  0  0  0  0
  6  1  1  0  0  0  0
  4  7  1  0  0  0  0
  7  8  1  0  0  0  0
  8  9  2  0  0  0  0
  9  5  1  0  0  0  0
  6 10  1  0  0  0  0
  7 11  1  0  0  0  0
  9 12  1  0  0  0  0
 12 13  2  0  0  0  0
 13 14  1  0  0  0  0
 14 15  2  0  0  0  0
 15 16  1  0  0  0  0
 16 17  2  0  0  0  0
 17 12  1  0  0  0  0
 14 18  1  0  0  0  0
 11 19  1  0  0  0  0
 19 20  1  0  0  0  0
 20 21  1  0  0  0  0
 21 22  1  0  0  0  0
 22 23  2  0  0  0  0
 23 24  1  0  0  0  0
 24 19  2  0  0  0  0
 21 25  2  0  0  0  0
 20 26  1  0  0  0  0
 26 27  2  0  0  0  0
 27 28  1  0  0  0  0
 28 29  2  0  0  0  0
 29 30  1  0  0  0  0
 30 31  2  0  0  0  0
 31 26  1  0  0  0  0
 22 32  1  0  0  0  0
 32 33  2  0  0  0  0
 33 34  1  0  0  0  0
 34 35  2  0  0  0  0
 35 23  1  0  0  0  0
 32 36  1  0  0  0  0
 27 37  1  0  0  0  0
M  END
>  <Mol_ID> (163)
752

>  <Formula> (163)
C28H23N7O2

>  <MolWeight> (163)
489.52792

>  <Cat> (163)
S2227

>  <Name> (163)
PIK-294

>  <Synonyms> (163)
N/A 

>  <Target> (163)
PI3K 

>  <Form> (163)
Free Base

>  <CAS> (163)
900185-02-6

>  <URL> (163)
http://www.selleckchem.com/products/PIK-294.html

$$$$
Telatinib (BAY 57-9352).cdx
csChFnd80/05071909292D

 29 32  0  0  0  0  0  0  0  0999 V2000
    4.9073    4.5792    0.0000 N   0  0  0  0  0  0  0  0  0  0  0  0
    4.2073    3.3668    0.0000 C   0  0  0  0  0  0  0  0  0  0  0  0
    4.9073    2.1544    0.0000 C   0  0  0  0  0  0  0  0  0  0  0  0
    6.3073    2.1544    0.0000 C   0  0  0  0  0  0  0  0  0  0  0  0
    7.0073    3.3668    0.0000 C   0  0  0  0  0  0  0  0  0  0  0  0
    6.3073    4.5792    0.0000 N   0  0  0  0  0  0  0  0  0  0  0  0
    8.4073    3.3668    0.0000 O   0  0  0  0  0  0  0  0  0  0  0  0
    9.1073    4.5792    0.0000 C   0  0  0  0  0  0  0  0  0  0  0  0
   10.5073    4.5792    0.0000 C   0  0  0  0  0  0  0  0  0  0  0  0
   11.2097    3.3626    0.0000 C   0  0  0  0  0  0  0  0  0  0  0  0
   12.6146    3.3626    0.0000 C   0  0  0  0  0  0  0  0  0  0  0  0
   13.3171    4.5792    0.0000 N   0  0  0  0  0  0  0  0  0  0  0  0
   12.6146    5.7959    0.0000 C   0  0  0  0  0  0  0  0  0  0  0  0
   11.2097    5.7959    0.0000 C   0  0  0  0  0  0  0  0  0  0  0  0
   13.3146    2.1502    0.0000 C   0  0  0  0  0  0  0  0  0  0  0  0
   12.6146    0.9377    0.0000 O   0  0  0  0  0  0  0  0  0  0  0  0
   14.7146    2.1502    0.0000 N   0  0  0  0  0  0  0  0  0  0  0  0
   15.4146    3.3626    0.0000 C   0  0  0  0  0  0  0  0  0  0  0  0
    2.8073    3.3668    0.0000 N   0  0  0  0  0  0  0  0  0  0  0  0
    4.4747    0.8229    0.0000 C   0  0  0  0  0  0  0  0  0  0  0  0
    5.6073    0.0000    0.0000 C   0  0  0  0  0  0  0  0  0  0  0  0
    6.7399    0.8229    0.0000 O   0  0  0  0  0  0  0  0  0  0  0  0
    2.1073    4.5792    0.0000 C   0  0  0  0  0  0  0  0  0  0  0  0
    2.8098    5.7959    0.0000 C   0  0  0  0  0  0  0  0  0  0  0  0
    2.1073    7.0126    0.0000 C   0  0  0  0  0  0  0  0  0  0  0  0
    0.7024    7.0126    0.0000 C   0  0  0  0  0  0  0  0  0  0  0  0
    0.0000    5.7959    0.0000 C   0  0  0  0  0  0  0  0  0  0  0  0
    0.7024    4.5792    0.0000 C   0  0  0  0  0  0  0  0  0  0  0  0
    0.0024    8.2250    0.0000 Cl  0  0  0  0  0  0  0  0  0  0  0  0
  1  2  2  0  0  0  0
  2  3  1  0  0  0  0
  3  4  2  0  0  0  0
  4  5  1  0  0  0  0
  5  6  2  0  0  0  0
  6  1  1  0  0  0  0
  5  7  1  0  0  0  0
  7  8  1  0  0  0  0
  8  9  1  0  0  0  0
  9 10  2  0  0  0  0
 10 11  1  0  0  0  0
 11 12  2  0  0  0  0
 12 13  1  0  0  0  0
 13 14  2  0  0  0  0
 14  9  1  0  0  0  0
 11 15  1  0  0  0  0
 15 16  2  0  0  0  0
 15 17  1  0  0  0  0
 17 18  1  0  0  0  0
  2 19  1  0  0  0  0
  3 20  1  0  0  0  0
 20 21  2  0  0  0  0
 21 22  1  0  0  0  0
 22  4  1  0  0  0  0
 19 23  1  0  0  0  0
 23 24  2  0  0  0  0
 24 25  1  0  0  0  0
 25 26  2  0  0  0  0
 26 27  1  0  0  0  0
 27 28  2  0  0  0  0
 28 23  1  0  0  0  0
 26 29  1  0  0  0  0
M  END
>  <Mol_ID> (164)
754

>  <Formula> (164)
C20H16ClN5O3

>  <MolWeight> (164)
409.82574

>  <Cat> (164)
S2231

>  <Name> (164)
Telatinib (BAY 57-9352)

>  <Synonyms> (164)
N/A 

>  <Target> (164)
VEGFR, PDGFR, c-Kit

>  <Form> (164)
Free Base

>  <CAS> (164)
332012-40-5

>  <URL> (164)
http://www.selleckchem.com/products/Telatinib-BAY-57-9352.html

$$$$
AZD5438.cdx
csChFnd80/05071909292D

 26 28  0  0  0  0  0  0  0  0999 V2000
    2.4165    3.4976    0.0000 C   0  0  0  0  0  0  0  0  0  0  0  0
    2.4165    2.0976    0.0000 C   0  0  0  0  0  0  0  0  0  0  0  0
    3.6289    1.3976    0.0000 C   0  0  0  0  0  0  0  0  0  0  0  0
    4.8413    2.0976    0.0000 C   0  0  0  0  0  0  0  0  0  0  0  0
    4.8413    3.4976    0.0000 C   0  0  0  0  0  0  0  0  0  0  0  0
    3.6289    4.1976    0.0000 C   0  0  0  0  0  0  0  0  0  0  0  0
    6.0496    4.1951    0.0000 N   0  0  0  0  0  0  0  0  0  0  0  0
    7.2578    3.4976    0.0000 C   0  0  0  0  0  0  0  0  0  0  0  0
    7.2578    2.0976    0.0000 N   0  0  0  0  0  0  0  0  0  0  0  0
    8.4702    1.3976    0.0000 C   0  0  0  0  0  0  0  0  0  0  0  0
    9.6826    2.0976    0.0000 C   0  0  0  0  0  0  0  0  0  0  0  0
    9.6826    3.4976    0.0000 C   0  0  0  0  0  0  0  0  0  0  0  0
    8.4702    4.1976    0.0000 N   0  0  0  0  0  0  0  0  0  0  0  0
    1.2082    1.4000    0.0000 S   0  0  0  0  0  0  0  0  0  0  0  0
    1.2082    0.0000    0.0000 O   0  0  0  0  0  0  0  0  0  0  0  0
    0.0000    2.0976    0.0000 C   0  0  0  0  0  0  0  0  0  0  0  0
    1.2082    2.7951    0.0000 O   0  0  0  0  0  0  0  0  0  0  0  0
   10.8909    4.1951    0.0000 C   0  0  0  0  0  0  0  0  0  0  0  0
   12.1698    3.6257    0.0000 C   0  0  0  0  0  0  0  0  0  0  0  0
   13.1066    4.6661    0.0000 N   0  0  0  0  0  0  0  0  0  0  0  0
   12.4066    5.8785    0.0000 C   0  0  0  0  0  0  0  0  0  0  0  0
   11.0372    5.5875    0.0000 N   0  0  0  0  0  0  0  0  0  0  0  0
   12.9741    7.1531    0.0000 C   0  0  0  0  0  0  0  0  0  0  0  0
   10.0004    6.5210    0.0000 C   0  0  0  0  0  0  0  0  0  0  0  0
    8.6736    6.0899    0.0000 C   0  0  0  0  0  0  0  0  0  0  0  0
   10.2905    7.8857    0.0000 C   0  0  0  0  0  0  0  0  0  0  0  0
  1  2  2  0  0  0  0
  2  3  1  0  0  0  0
  3  4  2  0  0  0  0
  4  5  1  0  0  0  0
  5  6  2  0  0  0  0
  6  1  1  0  0  0  0
  5  7  1  0  0  0  0
  7  8  1  0  0  0  0
  8  9  2  0  0  0  0
  9 10  1  0  0  0  0
 10 11  2  0  0  0  0
 11 12  1  0  0  0  0
 12 13  2  0  0  0  0
 13  8  1  0  0  0  0
  2 14  1  0  0  0  0
 14 15  2  0  0  0  0
 14 16  1  0  0  0  0
 14 17  2  0  0  0  0
 12 18  1  0  0  0  0
 18 19  2  0  0  0  0
 19 20  1  0  0  0  0
 20 21  2  0  0  0  0
 21 22  1  0  0  0  0
 22 18  1  0  0  0  0
 21 23  1  0  0  0  0
 22 24  1  0  0  0  0
 24 25  1  0  0  0  0
 24 26  1  0  0  0  0
M  END
>  <Mol_ID> (165)
761

>  <Formula> (165)
C18H21N5O2S

>  <MolWeight> (165)
371.45664

>  <Cat> (165)
S2621

>  <Name> (165)
AZD5438

>  <Synonyms> (165)
N/A 

>  <Target> (165)
CDK

>  <Form> (165)
Free Base

>  <CAS> (165)
602306-29-6 

>  <URL> (165)
http://www.selleckchem.com/products/AZD5438.html

$$$$
OSI-027.cdx
csChFnd80/05071909292D

 30 34  0  0  0  0  0  0  0  0999 V2000
    0.0000    8.1861    0.0000 N   0  0  0  0  0  0  0  0  0  0  0  0
    0.0000    6.7861    0.0000 C   0  0  0  0  0  0  0  0  0  0  0  0
    1.2124    6.0861    0.0000 N   0  0  0  0  0  0  0  0  0  0  0  0
    2.4249    6.7861    0.0000 N   0  0  0  0  0  0  0  0  0  0  0  0
    2.4249    8.1861    0.0000 C   0  0  0  0  0  0  0  0  0  0  0  0
    1.2124    8.8861    0.0000 C   0  0  0  0  0  0  0  0  0  0  0  0
    3.7564    6.3535    0.0000 C   0  0  0  0  0  0  0  0  0  0  0  0
    4.5793    7.4861    0.0000 N   0  0  0  0  0  0  0  0  0  0  0  0
    3.7564    8.6187    0.0000 C   0  0  0  0  0  0  0  0  0  0  0  0
    1.2124   10.2812    0.0000 N   0  0  0  0  0  0  0  0  0  0  0  0
    4.1875    9.9456    0.0000 C   0  0  0  0  0  0  0  0  0  0  0  0
    4.1875    5.0266    0.0000 C   0  0  2  0  0  0  0  0  0  0  0  0
    5.5190   10.3782    0.0000 N   0  0  0  0  0  0  0  0  0  0  0  0
    5.5190   11.7782    0.0000 C   0  0  0  0  0  0  0  0  0  0  0  0
    4.1875   12.2108    0.0000 C   0  0  0  0  0  0  0  0  0  0  0  0
    3.3646   11.0782    0.0000 C   0  0  0  0  0  0  0  0  0  0  0  0
    6.5594   12.7150    0.0000 C   0  0  0  0  0  0  0  0  0  0  0  0
    6.2683   14.0844    0.0000 C   0  0  0  0  0  0  0  0  0  0  0  0
    4.9368   14.5170    0.0000 C   0  0  0  0  0  0  0  0  0  0  0  0
    3.8964   13.5802    0.0000 C   0  0  0  0  0  0  0  0  0  0  0  0
    3.2507    3.9862    0.0000 C   0  0  0  0  0  0  0  0  0  0  0  0
    3.6833    2.6547    0.0000 C   0  0  0  0  0  0  0  0  0  0  0  0
    5.0527    2.3636    0.0000 C   0  0  2  0  0  0  0  0  0  0  0  0
    5.9895    3.4040    0.0000 C   0  0  0  0  0  0  0  0  0  0  0  0
    5.5569    4.7355    0.0000 C   0  0  0  0  0  0  0  0  0  0  0  0
    7.8862   12.2839    0.0000 O   0  0  0  0  0  0  0  0  0  0  0  0
    8.9230   13.2174    0.0000 C   0  0  0  0  0  0  0  0  0  0  0  0
    5.4838    1.0368    0.0000 C   0  0  0  0  0  0  0  0  0  0  0  0
    4.5503    0.0000    0.0000 O   0  0  0  0  0  0  0  0  0  0  0  0
    6.8485    0.7467    0.0000 O   0  0  0  0  0  0  0  0  0  0  0  0
  1  2  1  0  0  0  0
  2  3  2  0  0  0  0
  3  4  1  0  0  0  0
  4  5  1  0  0  0  0
  5  6  1  0  0  0  0
  6  1  2  0  0  0  0
  4  7  1  0  0  0  0
  7  8  2  0  0  0  0
  8  9  1  0  0  0  0
  9  5  2  0  0  0  0
  6 10  1  0  0  0  0
  9 11  1  0  0  0  0
 12  7  1  1  0  0  0
 11 13  1  0  0  0  0
 13 14  1  0  0  0  0
 14 15  2  0  0  0  0
 15 16  1  0  0  0  0
 16 11  2  0  0  0  0
 14 17  1  0  0  0  0
 17 18  2  0  0  0  0
 18 19  1  0  0  0  0
 19 20  2  0  0  0  0
 20 15  1  0  0  0  0
 12 21  1  0  0  0  0
 21 22  1  0  0  0  0
 22 23  1  0  0  0  0
 23 24  1  0  0  0  0
 24 25  1  0  0  0  0
 25 12  1  0  0  0  0
 17 26  1  0  0  0  0
 26 27  1  0  0  0  0
 23 28  1  6  0  0  0
 28 29  2  0  0  0  0
 28 30  1  0  0  0  0
M  END
>  <Mol_ID> (166)
764

>  <Formula> (166)
C21H22N6O3

>  <MolWeight> (166)
406.43778

>  <Cat> (166)
S2624

>  <Name> (166)
OSI-027

>  <Synonyms> (166)
N/A 

>  <Target> (166)
mTOR

>  <Form> (166)
Free Base

>  <CAS> (166)
936890-98-1

>  <URL> (166)
http://www.selleckchem.com/products/OSI027.html

$$$$
PP121.cdx
csChFnd80/05071909292D

 24 28  0  0  0  0  0  0  0  0999 V2000
    7.1581    2.1000    0.0000 C   0  0  0  0  0  0  0  0  0  0  0  0
    7.1581    0.7000    0.0000 C   0  0  0  0  0  0  0  0  0  0  0  0
    8.3706    0.0000    0.0000 N   0  0  0  0  0  0  0  0  0  0  0  0
    9.5830    0.7000    0.0000 C   0  0  0  0  0  0  0  0  0  0  0  0
    9.5830    2.1000    0.0000 C   0  0  0  0  0  0  0  0  0  0  0  0
    8.3706    2.8000    0.0000 C   0  0  0  0  0  0  0  0  0  0  0  0
   10.9145    0.2674    0.0000 N   0  0  0  0  0  0  0  0  0  0  0  0
   11.7374    1.4000    0.0000 C   0  0  0  0  0  0  0  0  0  0  0  0
   10.9145    2.5326    0.0000 C   0  0  0  0  0  0  0  0  0  0  0  0
    4.7247    2.0563    0.0000 N   0  0  0  0  0  0  0  0  0  0  0  0
    5.8574    2.8792    0.0000 C   0  0  0  0  0  0  0  0  0  0  0  0
    5.4247    4.2106    0.0000 C   0  0  0  0  0  0  0  0  0  0  0  0
    4.0247    4.2106    0.0000 C   0  0  0  0  0  0  0  0  0  0  0  0
    3.5921    2.8792    0.0000 N   0  0  0  0  0  0  0  0  0  0  0  0
    2.2652    2.4480    0.0000 C   0  0  0  0  0  0  0  0  0  0  0  0
    1.1326    3.2709    0.0000 C   0  0  0  0  0  0  0  0  0  0  0  0
    0.0000    2.4480    0.0000 C   0  0  0  0  0  0  0  0  0  0  0  0
    0.4326    1.1165    0.0000 C   0  0  0  0  0  0  0  0  0  0  0  0
    1.8326    1.1165    0.0000 C   0  0  0  0  0  0  0  0  0  0  0  0
    6.1247    5.4231    0.0000 C   0  0  0  0  0  0  0  0  0  0  0  0
    5.4247    6.6355    0.0000 N   0  0  0  0  0  0  0  0  0  0  0  0
    4.0247    6.6355    0.0000 C   0  0  0  0  0  0  0  0  0  0  0  0
    3.3247    5.4231    0.0000 N   0  0  0  0  0  0  0  0  0  0  0  0
    7.5199    5.4231    0.0000 N   0  0  0  0  0  0  0  0  0  0  0  0
  1  2  2  0  0  0  0
  2  3  1  0  0  0  0
  3  4  2  0  0  0  0
  4  5  1  0  0  0  0
  5  6  2  0  0  0  0
  6  1  1  0  0  0  0
  4  7  1  0  0  0  0
  7  8  1  0  0  0  0
  8  9  2  0  0  0  0
  9  5  1  0  0  0  0
 10 11  2  0  0  0  0
 11 12  1  0  0  0  0
 12 13  2  0  0  0  0
 13 14  1  0  0  0  0
 14 10  1  0  0  0  0
  1 11  1  0  0  0  0
 14 15  1  0  0  0  0
 15 16  1  0  0  0  0
 16 17  1  0  0  0  0
 17 18  1  0  0  0  0
 18 19  1  0  0  0  0
 19 15  1  0  0  0  0
 12 20  1  0  0  0  0
 20 21  2  0  0  0  0
 21 22  1  0  0  0  0
 22 23  2  0  0  0  0
 23 13  1  0  0  0  0
 20 24  1  0  0  0  0
M  END
>  <Mol_ID> (167)
765

>  <Formula> (167)
C17H17N7

>  <MolWeight> (167)
319.36378

>  <Cat> (167)
S2622

>  <Name> (167)
PP-121

>  <Synonyms> (167)
N/A

>  <Target> (167)
DNA-PK, mTOR, PDGF

>  <Form> (167)
Free Base

>  <CAS> (167)
1092788-83-4

>  <URL> (167)
http://www.selleckchem.com/products/PP121.html

$$$$
WP1130.cdx
csChFnd80/05071909292D

 24 25  0  0  0  0  0  0  0  0999 V2000
    1.2124    2.7965    0.0000 C   0  0  0  0  0  0  0  0  0  0  0  0
    1.2124    1.3965    0.0000 C   0  0  0  0  0  0  0  0  0  0  0  0
    2.4249    0.6965    0.0000 C   0  0  0  0  0  0  0  0  0  0  0  0
    3.6373    1.3965    0.0000 C   0  0  0  0  0  0  0  0  0  0  0  0
    3.6373    2.7965    0.0000 C   0  0  0  0  0  0  0  0  0  0  0  0
    2.4249    3.4965    0.0000 N   0  0  0  0  0  0  0  0  0  0  0  0
    0.0000    3.4965    0.0000 Br  0  0  0  0  0  0  0  0  0  0  0  0
    4.8497    3.4965    0.0000 C   0  0  0  0  0  0  0  0  0  0  0  0
    6.0602    2.7977    0.0000 C   0  0  0  0  0  0  0  0  0  0  0  0
    7.2706    3.4965    0.0000 C   0  0  0  0  0  0  0  0  0  0  0  0
    6.0602    1.4000    0.0000 C   0  0  0  0  0  0  0  0  0  0  0  0
    6.0602    0.0000    0.0000 N   0  0  0  0  0  0  0  0  0  0  0  0
    8.4810    2.7977    0.0000 N   0  0  0  0  0  0  0  0  0  0  0  0
    7.2706    4.8942    0.0000 O   0  0  0  0  0  0  0  0  0  0  0  0
    9.6914    3.4965    0.0000 C   0  0  2  0  0  0  0  0  0  0  0  0
   10.9018    2.7977    0.0000 C   0  0  0  0  0  0  0  0  0  0  0  0
    9.6914    4.8942    0.0000 C   0  0  0  0  0  0  0  0  0  0  0  0
   10.9018    5.5930    0.0000 C   0  0  0  0  0  0  0  0  0  0  0  0
   12.1122    4.8942    0.0000 C   0  0  0  0  0  0  0  0  0  0  0  0
   10.9018    1.3977    0.0000 C   0  0  0  0  0  0  0  0  0  0  0  0
   12.1143    0.6977    0.0000 C   0  0  0  0  0  0  0  0  0  0  0  0
   13.3267    1.3977    0.0000 C   0  0  0  0  0  0  0  0  0  0  0  0
   13.3267    2.7977    0.0000 C   0  0  0  0  0  0  0  0  0  0  0  0
   12.1143    3.4977    0.0000 C   0  0  0  0  0  0  0  0  0  0  0  0
  1  2  2  0  0  0  0
  2  3  1  0  0  0  0
  3  4  2  0  0  0  0
  4  5  1  0  0  0  0
  5  6  2  0  0  0  0
  6  1  1  0  0  0  0
  1  7  1  0  0  0  0
  5  8  1  0  0  0  0
  8  9  2  0  0  0  0
  9 10  1  0  0  0  0
  9 11  1  0  0  0  0
 10 13  1  0  0  0  0
 10 14  2  0  0  0  0
 15 13  1  1  0  0  0
 15 16  1  0  0  0  0
 15 17  1  0  0  0  0
 17 18  1  0  0  0  0
 18 19  1  0  0  0  0
 16 20  2  0  0  0  0
 20 21  1  0  0  0  0
 21 22  2  0  0  0  0
 22 23  1  0  0  0  0
 23 24  2  0  0  0  0
 24 16  1  0  0  0  0
 11 12  3  0  0  0  0
M  END
>  <Mol_ID> (168)
768

>  <Formula> (168)
C19H18BrN3O

>  <MolWeight> (168)
384.26972

>  <Cat> (168)
S2243

>  <Name> (168)
Degrasyn (WP1130)

>  <Synonyms> (168)
N/A

>  <Target> (168)
DUB, Bcr-Abl

>  <Form> (168)
Free Base

>  <CAS> (168)
856243-80-6

>  <URL> (168)
http://www.selleckchem.com/products/WP1130.html

$$$$
BKM-120.cdx
csChFnd80/05071909292D

 29 32  0  0  0  0  0  0  0  0999 V2000
    1.2082    2.1000    0.0000 C   0  0  0  0  0  0  0  0  0  0  0  0
    1.2082    0.7000    0.0000 C   0  0  0  0  0  0  0  0  0  0  0  0
    2.4207    0.0000    0.0000 N   0  0  0  0  0  0  0  0  0  0  0  0
    3.6331    0.7000    0.0000 C   0  0  0  0  0  0  0  0  0  0  0  0
    3.6331    2.1000    0.0000 C   0  0  0  0  0  0  0  0  0  0  0  0
    2.4207    2.8000    0.0000 C   0  0  0  0  0  0  0  0  0  0  0  0
    0.0000    0.0024    0.0000 N   0  0  0  0  0  0  0  0  0  0  0  0
    4.8413    2.7976    0.0000 C   0  0  0  0  0  0  0  0  0  0  0  0
    2.4207    4.1951    0.0000 C   0  0  0  0  0  0  0  0  0  0  0  0
    1.2124    4.8927    0.0000 F   0  0  0  0  0  0  0  0  0  0  0  0
    3.6289    4.8927    0.0000 F   0  0  0  0  0  0  0  0  0  0  0  0
    2.4207    5.5951    0.0000 F   0  0  0  0  0  0  0  0  0  0  0  0
    6.0538    2.0976    0.0000 N   0  0  0  0  0  0  0  0  0  0  0  0
    7.2662    2.7976    0.0000 C   0  0  0  0  0  0  0  0  0  0  0  0
    7.2662    4.1976    0.0000 N   0  0  0  0  0  0  0  0  0  0  0  0
    6.0538    4.8976    0.0000 C   0  0  0  0  0  0  0  0  0  0  0  0
    4.8413    4.1976    0.0000 C   0  0  0  0  0  0  0  0  0  0  0  0
    8.4744    2.1000    0.0000 N   0  0  0  0  0  0  0  0  0  0  0  0
    6.0538    6.2927    0.0000 N   0  0  0  0  0  0  0  0  0  0  0  0
    7.2662    6.9927    0.0000 C   0  0  0  0  0  0  0  0  0  0  0  0
    7.2662    8.3927    0.0000 C   0  0  0  0  0  0  0  0  0  0  0  0
    6.0538    9.0927    0.0000 O   0  0  0  0  0  0  0  0  0  0  0  0
    4.8413    8.3927    0.0000 C   0  0  0  0  0  0  0  0  0  0  0  0
    4.8413    6.9927    0.0000 C   0  0  0  0  0  0  0  0  0  0  0  0
    8.4744    0.7000    0.0000 C   0  0  0  0  0  0  0  0  0  0  0  0
    9.6869    0.0000    0.0000 C   0  0  0  0  0  0  0  0  0  0  0  0
   10.8993    0.7000    0.0000 O   0  0  0  0  0  0  0  0  0  0  0  0
   10.8993    2.1000    0.0000 C   0  0  0  0  0  0  0  0  0  0  0  0
    9.6869    2.8000    0.0000 C   0  0  0  0  0  0  0  0  0  0  0  0
  1  2  2  0  0  0  0
  2  3  1  0  0  0  0
  3  4  2  0  0  0  0
  4  5  1  0  0  0  0
  5  6  2  0  0  0  0
  6  1  1  0  0  0  0
  2  7  1  0  0  0  0
  5  8  1  0  0  0  0
  6  9  1  0  0  0  0
  9 10  1  0  0  0  0
  9 11  1  0  0  0  0
  9 12  1  0  0  0  0
  8 13  2  0  0  0  0
 13 14  1  0  0  0  0
 14 15  2  0  0  0  0
 15 16  1  0  0  0  0
 16 17  2  0  0  0  0
 17  8  1  0  0  0  0
 14 18  1  0  0  0  0
 16 19  1  0  0  0  0
 19 20  1  0  0  0  0
 20 21  1  0  0  0  0
 21 22  1  0  0  0  0
 22 23  1  0  0  0  0
 23 24  1  0  0  0  0
 24 19  1  0  0  0  0
 18 25  1  0  0  0  0
 25 26  1  0  0  0  0
 26 27  1  0  0  0  0
 27 28  1  0  0  0  0
 28 29  1  0  0  0  0
 29 18  1  0  0  0  0
M  END
>  <Mol_ID> (169)
775

>  <Formula> (169)
C18H21F3N6O2

>  <MolWeight> (169)
410.3935496

>  <Cat> (169)
S2247 

>  <Name> (169)
BKM120 (NVP-BKM120)

>  <Synonyms> (169)
N/A 

>  <Target> (169)
PI3K

>  <Form> (169)
Free Base

>  <CAS> (169)
944396-07-0

>  <URL> (169)
http://www.selleckchem.com/products/BKM-120.html

$$$$
CX-4945.cdx
csChFnd80/05071909292D

 25 28  0  0  0  0  0  0  0  0999 V2000
    0.0000    5.5927    0.0000 C   0  0  0  0  0  0  0  0  0  0  0  0
    0.0000    4.1927    0.0000 N   0  0  0  0  0  0  0  0  0  0  0  0
    1.2124    3.4927    0.0000 C   0  0  0  0  0  0  0  0  0  0  0  0
    2.4249    4.1927    0.0000 C   0  0  0  0  0  0  0  0  0  0  0  0
    2.4249    5.5927    0.0000 C   0  0  0  0  0  0  0  0  0  0  0  0
    1.2124    6.2927    0.0000 C   0  0  0  0  0  0  0  0  0  0  0  0
    3.6373    3.4927    0.0000 C   0  0  0  0  0  0  0  0  0  0  0  0
    4.8497    4.1927    0.0000 C   0  0  0  0  0  0  0  0  0  0  0  0
    4.8497    5.5927    0.0000 N   0  0  0  0  0  0  0  0  0  0  0  0
    3.6373    6.2927    0.0000 C   0  0  0  0  0  0  0  0  0  0  0  0
    3.6373    2.0927    0.0000 C   0  0  0  0  0  0  0  0  0  0  0  0
    4.8497    1.3927    0.0000 C   0  0  0  0  0  0  0  0  0  0  0  0
    6.0622    2.0927    0.0000 C   0  0  0  0  0  0  0  0  0  0  0  0
    6.0622    3.4927    0.0000 C   0  0  0  0  0  0  0  0  0  0  0  0
    3.6373    7.6878    0.0000 N   0  0  0  0  0  0  0  0  0  0  0  0
    4.8497    8.3878    0.0000 C   0  0  0  0  0  0  0  0  0  0  0  0
    6.0622    7.6878    0.0000 C   0  0  0  0  0  0  0  0  0  0  0  0
    7.2746    8.3878    0.0000 C   0  0  0  0  0  0  0  0  0  0  0  0
    7.2746    9.7878    0.0000 C   0  0  0  0  0  0  0  0  0  0  0  0
    6.0622   10.4878    0.0000 C   0  0  0  0  0  0  0  0  0  0  0  0
    4.8497    9.7878    0.0000 C   0  0  0  0  0  0  0  0  0  0  0  0
    8.4828    7.6903    0.0000 Cl  0  0  0  0  0  0  0  0  0  0  0  0
    7.2704    1.3951    0.0000 C   0  0  0  0  0  0  0  0  0  0  0  0
    8.4786    2.0927    0.0000 O   0  0  0  0  0  0  0  0  0  0  0  0
    7.2704    0.0000    0.0000 O   0  0  0  0  0  0  0  0  0  0  0  0
  1  2  2  0  0  0  0
  2  3  1  0  0  0  0
  3  4  2  0  0  0  0
  4  5  1  0  0  0  0
  5  6  2  0  0  0  0
  6  1  1  0  0  0  0
  4  7  1  0  0  0  0
  7  8  2  0  0  0  0
  8  9  1  0  0  0  0
  9 10  2  0  0  0  0
 10  5  1  0  0  0  0
  7 11  1  0  0  0  0
 11 12  2  0  0  0  0
 12 13  1  0  0  0  0
 13 14  2  0  0  0  0
 14  8  1  0  0  0  0
 10 15  1  0  0  0  0
 15 16  1  0  0  0  0
 16 17  2  0  0  0  0
 17 18  1  0  0  0  0
 18 19  2  0  0  0  0
 19 20  1  0  0  0  0
 20 21  2  0  0  0  0
 21 16  1  0  0  0  0
 18 22  1  0  0  0  0
 13 23  1  0  0  0  0
 23 24  2  0  0  0  0
 23 25  1  0  0  0  0
M  END
>  <Mol_ID> (170)
776

>  <Formula> (170)
C19H12ClN3O2

>  <MolWeight> (170)
349.77048

>  <Cat> (170)
S2248

>  <Name> (170)
cx-4945 (Silmitasertib)

>  <Synonyms> (170)
N/A 

>  <Target> (170)
PKC

>  <Form> (170)
Free Base

>  <CAS> (170)
1009820-21-6

>  <URL> (170)
http://www.selleckchem.com/products/cx-4945-silmitasertib.html

$$$$
TAK733.cdx
csChFnd80/05071909292D

 28 30  0  0  0  0  0  0  0  0999 V2000
    3.6247    3.4951    0.0000 N   0  0  0  0  0  0  0  0  0  0  0  0
    3.6247    2.0951    0.0000 C   0  0  0  0  0  0  0  0  0  0  0  0
    4.8371    1.3951    0.0000 N   0  0  0  0  0  0  0  0  0  0  0  0
    6.0496    2.0951    0.0000 C   0  0  0  0  0  0  0  0  0  0  0  0
    6.0496    3.4951    0.0000 C   0  0  0  0  0  0  0  0  0  0  0  0
    4.8371    4.1951    0.0000 C   0  0  0  0  0  0  0  0  0  0  0  0
    7.2620    1.3951    0.0000 N   0  0  0  0  0  0  0  0  0  0  0  0
    8.4744    2.0951    0.0000 C   0  0  0  0  0  0  0  0  0  0  0  0
    8.4744    3.4951    0.0000 C   0  0  0  0  0  0  0  0  0  0  0  0
    7.2620    4.1951    0.0000 C   0  0  0  0  0  0  0  0  0  0  0  0
    4.8371    5.5903    0.0000 O   0  0  0  0  0  0  0  0  0  0  0  0
    2.4165    4.1927    0.0000 C   0  0  0  0  0  0  0  0  0  0  0  0
    1.2082    3.4951    0.0000 C   0  0  1  0  0  0  0  0  0  0  0  0
    0.0000    4.1927    0.0000 O   0  0  0  0  0  0  0  0  0  0  0  0
    1.2082    2.1000    0.0000 C   0  0  0  0  0  0  0  0  0  0  0  0
    0.0000    1.4024    0.0000 O   0  0  0  0  0  0  0  0  0  0  0  0
    9.6826    1.3976    0.0000 O   0  0  0  0  0  0  0  0  0  0  0  0
    7.2620    0.0000    0.0000 C   0  0  0  0  0  0  0  0  0  0  0  0
    7.2620    5.5903    0.0000 N   0  0  0  0  0  0  0  0  0  0  0  0
    8.4702    6.2879    0.0000 C   0  0  0  0  0  0  0  0  0  0  0  0
    9.6826    4.1927    0.0000 F   0  0  0  0  0  0  0  0  0  0  0  0
    9.6826    5.5879    0.0000 C   0  0  0  0  0  0  0  0  0  0  0  0
   10.8951    6.2879    0.0000 C   0  0  0  0  0  0  0  0  0  0  0  0
   10.8951    7.6879    0.0000 C   0  0  0  0  0  0  0  0  0  0  0  0
    9.6826    8.3879    0.0000 C   0  0  0  0  0  0  0  0  0  0  0  0
    8.4702    7.6879    0.0000 C   0  0  0  0  0  0  0  0  0  0  0  0
    7.2620    8.3854    0.0000 F   0  0  0  0  0  0  0  0  0  0  0  0
   12.1033    8.3854    0.0000 I   0  0  0  0  0  0  0  0  0  0  0  0
  1  2  1  0  0  0  0
  2  3  2  0  0  0  0
  3  4  1  0  0  0  0
  4  5  2  0  0  0  0
  5  6  1  0  0  0  0
  6  1  1  0  0  0  0
  4  7  1  0  0  0  0
  7  8  1  0  0  0  0
  8  9  1  0  0  0  0
  9 10  2  0  0  0  0
 10  5  1  0  0  0  0
  6 11  2  0  0  0  0
  1 12  1  0  0  0  0
 12 13  1  0  0  0  0
 13 14  1  6  0  0  0
 13 15  1  0  0  0  0
 15 16  1  0  0  0  0
  8 17  2  0  0  0  0
  7 18  1  0  0  0  0
 10 19  1  0  0  0  0
 19 20  1  0  0  0  0
  9 21  1  0  0  0  0
 20 22  2  0  0  0  0
 22 23  1  0  0  0  0
 23 24  2  0  0  0  0
 24 25  1  0  0  0  0
 25 26  2  0  0  0  0
 26 20  1  0  0  0  0
 26 27  1  0  0  0  0
 24 28  1  0  0  0  0
M  END
>  <Mol_ID> (171)
780

>  <Formula> (171)
C17H15F2IN4O4

>  <MolWeight> (171)
504.2266764

>  <Cat> (171)
S2617

>  <Name> (171)
TAK-733

>  <Synonyms> (171)
N/A 

>  <Target> (171)
MEK

>  <Form> (171)
Free Base

>  <CAS> (171)
1035555-63-5

>  <URL> (171)
http://www.selleckchem.com/products/tak-733.html

$$$$
CCT128930.cdx
csChFnd80/05071909292D

 24 27  0  0  0  0  0  0  0  0999 V2000
    5.1773    2.1000    0.0000 N   0  0  0  0  0  0  0  0  0  0  0  0
    5.1773    0.7000    0.0000 C   0  0  0  0  0  0  0  0  0  0  0  0
    6.3897    0.0000    0.0000 N   0  0  0  0  0  0  0  0  0  0  0  0
    7.6022    0.7000    0.0000 C   0  0  0  0  0  0  0  0  0  0  0  0
    7.6022    2.1000    0.0000 C   0  0  0  0  0  0  0  0  0  0  0  0
    6.3897    2.8000    0.0000 C   0  0  0  0  0  0  0  0  0  0  0  0
    8.9337    0.2674    0.0000 N   0  0  0  0  0  0  0  0  0  0  0  0
    9.7566    1.4000    0.0000 C   0  0  0  0  0  0  0  0  0  0  0  0
    8.9337    2.5326    0.0000 C   0  0  0  0  0  0  0  0  0  0  0  0
    6.3897    4.1951    0.0000 N   0  0  0  0  0  0  0  0  0  0  0  0
    7.6022    4.8951    0.0000 C   0  0  0  0  0  0  0  0  0  0  0  0
    7.6022    6.2951    0.0000 C   0  0  0  0  0  0  0  0  0  0  0  0
    6.3897    6.9951    0.0000 C   0  0  0  0  0  0  0  0  0  0  0  0
    5.1773    6.2951    0.0000 C   0  0  0  0  0  0  0  0  0  0  0  0
    5.1773    4.8951    0.0000 C   0  0  0  0  0  0  0  0  0  0  0  0
    7.3797    7.9851    0.0000 N   0  0  0  0  0  0  0  0  0  0  0  0
    5.3998    7.9851    0.0000 C   0  0  0  0  0  0  0  0  0  0  0  0
    4.0522    7.6240    0.0000 C   0  0  0  0  0  0  0  0  0  0  0  0
    3.0622    8.6140    0.0000 C   0  0  0  0  0  0  0  0  0  0  0  0
    1.7099    8.2516    0.0000 C   0  0  0  0  0  0  0  0  0  0  0  0
    1.3476    6.8993    0.0000 C   0  0  0  0  0  0  0  0  0  0  0  0
    2.3376    5.9094    0.0000 C   0  0  0  0  0  0  0  0  0  0  0  0
    3.6898    6.2717    0.0000 C   0  0  0  0  0  0  0  0  0  0  0  0
    0.0000    6.5382    0.0000 Cl  0  0  0  0  0  0  0  0  0  0  0  0
  1  2  2  0  0  0  0
  2  3  1  0  0  0  0
  3  4  2  0  0  0  0
  4  5  1  0  0  0  0
  5  6  2  0  0  0  0
  6  1  1  0  0  0  0
  4  7  1  0  0  0  0
  7  8  1  0  0  0  0
  8  9  2  0  0  0  0
  9  5  1  0  0  0  0
  6 10  1  0  0  0  0
 10 11  1  0  0  0  0
 11 12  1  0  0  0  0
 12 13  1  0  0  0  0
 13 14  1  0  0  0  0
 14 15  1  0  0  0  0
 15 10  1  0  0  0  0
 13 16  1  0  0  0  0
 13 17  1  0  0  0  0
 17 18  1  0  0  0  0
 18 19  2  0  0  0  0
 19 20  1  0  0  0  0
 20 21  2  0  0  0  0
 21 22  1  0  0  0  0
 22 23  2  0  0  0  0
 23 18  1  0  0  0  0
 21 24  1  0  0  0  0
M  END
>  <Mol_ID> (172)
782

>  <Formula> (172)
C18H20ClN5

>  <MolWeight> (172)
341.8379

>  <Cat> (172)
S2635

>  <Name> (172)
CCT128930

>  <Synonyms> (172)
N/A 

>  <Target> (172)
Akt

>  <Form> (172)
Free Base

>  <CAS> (172)
885499-61-6

>  <URL> (172)
http://www.selleckchem.com/products/cct128930.html

$$$$
R7935788.cdx
csChFnd80/05071909292D

 40 43  0  0  0  0  0  0  0  0999 V2000
    2.4165    4.1927    0.0000 C   0  0  0  0  0  0  0  0  0  0  0  0
    2.4165    2.7927    0.0000 C   0  0  0  0  0  0  0  0  0  0  0  0
    3.6289    2.0927    0.0000 C   0  0  0  0  0  0  0  0  0  0  0  0
    4.8413    2.7927    0.0000 C   0  0  0  0  0  0  0  0  0  0  0  0
    4.8413    4.1927    0.0000 C   0  0  0  0  0  0  0  0  0  0  0  0
    3.6289    4.8927    0.0000 C   0  0  0  0  0  0  0  0  0  0  0  0
    1.2082    4.8903    0.0000 O   0  0  0  0  0  0  0  0  0  0  0  0
    1.2082    2.0951    0.0000 O   0  0  0  0  0  0  0  0  0  0  0  0
    0.0000    2.7927    0.0000 C   0  0  0  0  0  0  0  0  0  0  0  0
    0.0000    4.1927    0.0000 C   0  0  0  0  0  0  0  0  0  0  0  0
    3.6289    0.6976    0.0000 O   0  0  0  0  0  0  0  0  0  0  0  0
    4.8371    0.0000    0.0000 C   0  0  0  0  0  0  0  0  0  0  0  0
    6.0496    4.8903    0.0000 N   0  0  0  0  0  0  0  0  0  0  0  0
    7.2578    4.1927    0.0000 C   0  0  0  0  0  0  0  0  0  0  0  0
    7.2578    2.7927    0.0000 N   0  0  0  0  0  0  0  0  0  0  0  0
    8.4702    2.0927    0.0000 C   0  0  0  0  0  0  0  0  0  0  0  0
    9.6827    2.7927    0.0000 C   0  0  0  0  0  0  0  0  0  0  0  0
    9.6827    4.1927    0.0000 C   0  0  0  0  0  0  0  0  0  0  0  0
    8.4702    4.8927    0.0000 N   0  0  0  0  0  0  0  0  0  0  0  0
   10.8909    2.0951    0.0000 F   0  0  0  0  0  0  0  0  0  0  0  0
   10.8909    4.8903    0.0000 N   0  0  0  0  0  0  0  0  0  0  0  0
   12.0991    4.1927    0.0000 C   0  0  0  0  0  0  0  0  0  0  0  0
   12.0991    2.7927    0.0000 C   0  0  0  0  0  0  0  0  0  0  0  0
   13.3115    2.0927    0.0000 C   0  0  0  0  0  0  0  0  0  0  0  0
   14.5240    2.7927    0.0000 C   0  0  0  0  0  0  0  0  0  0  0  0
   14.5240    4.1927    0.0000 C   0  0  0  0  0  0  0  0  0  0  0  0
   13.3115    4.8927    0.0000 N   0  0  0  0  0  0  0  0  0  0  0  0
   15.7364    2.0927    0.0000 O   0  0  0  0  0  0  0  0  0  0  0  0
   16.9489    2.7927    0.0000 C   0  0  0  0  0  0  0  0  0  0  0  0
   16.9489    4.1927    0.0000 C   0  0  0  0  0  0  0  0  0  0  0  0
   15.7364    4.8927    0.0000 N   0  0  0  0  0  0  0  0  0  0  0  0
   15.7364    6.2879    0.0000 C   0  0  0  0  0  0  0  0  0  0  0  0
   16.9446    6.9854    0.0000 O   0  0  0  0  0  0  0  0  0  0  0  0
   16.9446    8.3854    0.0000 P   0  0  0  0  0  0  0  0  0  0  0  0
   18.1571    2.0951    0.0000 C   0  0  0  0  0  0  0  0  0  0  0  0
   18.1613    3.4927    0.0000 C   0  0  0  0  0  0  0  0  0  0  0  0
   18.1571    4.8903    0.0000 O   0  0  0  0  0  0  0  0  0  0  0  0
   15.7364    9.0830    0.0000 O   0  0  0  0  0  0  0  0  0  0  0  0
   18.1529    9.0830    0.0000 O   0  0  0  0  0  0  0  0  0  0  0  0
   16.9446    9.7854    0.0000 O   0  0  0  0  0  0  0  0  0  0  0  0
  1  2  2  0  0  0  0
  2  3  1  0  0  0  0
  3  4  2  0  0  0  0
  4  5  1  0  0  0  0
  5  6  2  0  0  0  0
  6  1  1  0  0  0  0
  1  7  1  0  0  0  0
  2  8  1  0  0  0  0
  8  9  1  0  0  0  0
  7 10  1  0  0  0  0
  3 11  1  0  0  0  0
 11 12  1  0  0  0  0
  5 13  1  0  0  0  0
 13 14  1  0  0  0  0
 14 15  2  0  0  0  0
 15 16  1  0  0  0  0
 16 17  2  0  0  0  0
 17 18  1  0  0  0  0
 18 19  2  0  0  0  0
 19 14  1  0  0  0  0
 17 20  1  0  0  0  0
 18 21  1  0  0  0  0
 21 22  1  0  0  0  0
 22 23  2  0  0  0  0
 23 24  1  0  0  0  0
 24 25  2  0  0  0  0
 25 26  1  0  0  0  0
 26 27  2  0  0  0  0
 27 22  1  0  0  0  0
 25 28  1  0  0  0  0
 28 29  1  0  0  0  0
 29 30  1  0  0  0  0
 30 31  1  0  0  0  0
 31 26  1  0  0  0  0
 31 32  1  0  0  0  0
 32 33  1  0  0  0  0
 33 34  1  0  0  0  0
 29 35  1  0  0  0  0
 29 36  1  0  0  0  0
 30 37  2  0  0  0  0
 34 38  1  0  0  0  0
 34 39  1  0  0  0  0
 34 40  2  0  0  0  0
M  END
>  <Mol_ID> (173)
783

>  <Formula> (173)
C23H26FN6O9P

>  <MolWeight> (173)
580.4595042

>  <Cat> (173)
S2625

>  <Name> (173)
R788 (Fostamatinib)

>  <Synonyms> (173)
N/A 

>  <Target> (173)
Syk

>  <Form> (173)
Free Base

>  <CAS> (173)
901119-35-5

>  <URL> (173)
http://www.selleckchem.com/products/R7935788-Fostamatinib.html

$$$$
A66.cdx
csChFnd80/05071909292D

 26 28  0  0  0  0  0  0  0  0999 V2000
    0.4554    4.5118    0.0000 C   0  0  0  0  0  0  0  0  0  0  0  0
    0.4554    3.1118    0.0000 S   0  0  0  0  0  0  0  0  0  0  0  0
    1.7869    2.6792    0.0000 C   0  0  0  0  0  0  0  0  0  0  0  0
    2.6098    3.8118    0.0000 N   0  0  0  0  0  0  0  0  0  0  0  0
    1.7869    4.9444    0.0000 C   0  0  0  0  0  0  0  0  0  0  0  0
    2.2180    1.3523    0.0000 C   0  0  0  0  0  0  0  0  0  0  0  0
    3.5827    1.0622    0.0000 C   0  0  0  0  0  0  0  0  0  0  0  0
    1.2845    0.3155    0.0000 C   0  0  0  0  0  0  0  0  0  0  0  0
    2.5804    0.0000    0.0000 C   0  0  0  0  0  0  0  0  0  0  0  0
    2.2180    6.2713    0.0000 C   0  0  0  0  0  0  0  0  0  0  0  0
    3.5495    6.7039    0.0000 S   0  0  0  0  0  0  0  0  0  0  0  0
    3.5495    8.1039    0.0000 C   0  0  0  0  0  0  0  0  0  0  0  0
    2.2180    8.5365    0.0000 N   0  0  0  0  0  0  0  0  0  0  0  0
    1.3951    7.4039    0.0000 C   0  0  0  0  0  0  0  0  0  0  0  0
    0.0000    7.4039    0.0000 C   0  0  0  0  0  0  0  0  0  0  0  0
    4.6782    8.9239    0.0000 N   0  0  0  0  0  0  0  0  0  0  0  0
    5.9527    8.3565    0.0000 C   0  0  0  0  0  0  0  0  0  0  0  0
    7.0814    9.1765    0.0000 N   0  0  0  0  0  0  0  0  0  0  0  0
    6.0986    6.9690    0.0000 O   0  0  0  0  0  0  0  0  0  0  0  0
    8.4129    8.7439    0.0000 C   0  0  1  0  0  0  0  0  0  0  0  0
    9.2358    9.8765    0.0000 C   0  0  0  0  0  0  0  0  0  0  0  0
    8.4129   11.0091    0.0000 C   0  0  0  0  0  0  0  0  0  0  0  0
    7.0814   10.5765    0.0000 C   0  0  0  0  0  0  0  0  0  0  0  0
    8.8440    7.4170    0.0000 C   0  0  0  0  0  0  0  0  0  0  0  0
    7.9105    6.3802    0.0000 O   0  0  0  0  0  0  0  0  0  0  0  0
   10.2087    7.1270    0.0000 N   0  0  0  0  0  0  0  0  0  0  0  0
  1  2  1  0  0  0  0
  2  3  1  0  0  0  0
  3  4  2  0  0  0  0
  4  5  1  0  0  0  0
  5  1  2  0  0  0  0
  3  6  1  0  0  0  0
  6  7  1  0  0  0  0
  6  8  1  0  0  0  0
  6  9  1  0  0  0  0
  5 10  1  0  0  0  0
 10 11  1  0  0  0  0
 11 12  1  0  0  0  0
 12 13  2  0  0  0  0
 13 14  1  0  0  0  0
 14 10  2  0  0  0  0
 14 15  1  0  0  0  0
 12 16  1  0  0  0  0
 16 17  1  0  0  0  0
 17 18  1  0  0  0  0
 17 19  2  0  0  0  0
 18 20  1  0  0  0  0
 20 21  1  0  0  0  0
 21 22  1  0  0  0  0
 22 23  1  0  0  0  0
 23 18  1  0  0  0  0
 20 24  1  1  0  0  0
 24 25  2  0  0  0  0
 24 26  1  0  0  0  0
M  END
>  <Mol_ID> (174)
785

>  <Formula> (174)
C17H23N5O2S2

>  <MolWeight> (174)
393.52682

>  <Cat> (174)
S2636

>  <Name> (174)
A66

>  <Synonyms> (174)
N/A 

>  <Target> (174)
PI3K

>  <Form> (174)
Free Base

>  <CAS> (174)
1166227-08-2 

>  <URL> (174)
http://www.selleckchem.com/products/a66.html

$$$$
A-674563.cdx
csChFnd80/05071909292D

 27 30  0  0  0  0  0  0  0  0999 V2000
    0.0000    4.5062    0.0000 C   0  0  0  0  0  0  0  0  0  0  0  0
    0.0000    3.1062    0.0000 C   0  0  0  0  0  0  0  0  0  0  0  0
    1.2124    2.4062    0.0000 C   0  0  0  0  0  0  0  0  0  0  0  0
    2.4249    3.1062    0.0000 C   0  0  0  0  0  0  0  0  0  0  0  0
    2.4249    4.5062    0.0000 C   0  0  0  0  0  0  0  0  0  0  0  0
    1.2124    5.2062    0.0000 C   0  0  0  0  0  0  0  0  0  0  0  0
    3.6331    5.2038    0.0000 C   0  0  0  0  0  0  0  0  0  0  0  0
    4.8413    4.5062    0.0000 C   0  0  1  0  0  0  0  0  0  0  0  0
    6.0496    5.2038    0.0000 C   0  0  0  0  0  0  0  0  0  0  0  0
    7.2578    4.5062    0.0000 O   0  0  0  0  0  0  0  0  0  0  0  0
    8.4660    5.2038    0.0000 C   0  0  0  0  0  0  0  0  0  0  0  0
    9.6784    4.5038    0.0000 C   0  0  0  0  0  0  0  0  0  0  0  0
   10.8909    5.2038    0.0000 C   0  0  0  0  0  0  0  0  0  0  0  0
   10.8909    6.6038    0.0000 C   0  0  0  0  0  0  0  0  0  0  0  0
    9.6784    7.3038    0.0000 N   0  0  0  0  0  0  0  0  0  0  0  0
    8.4660    6.6038    0.0000 C   0  0  0  0  0  0  0  0  0  0  0  0
   12.0991    4.5062    0.0000 C   0  0  0  0  0  0  0  0  0  0  0  0
   12.0991    3.1062    0.0000 C   0  0  0  0  0  0  0  0  0  0  0  0
   13.3115    2.4062    0.0000 C   0  0  0  0  0  0  0  0  0  0  0  0
   14.5240    3.1062    0.0000 C   0  0  0  0  0  0  0  0  0  0  0  0
   14.5240    4.5062    0.0000 C   0  0  0  0  0  0  0  0  0  0  0  0
   13.3115    5.2062    0.0000 C   0  0  0  0  0  0  0  0  0  0  0  0
   13.6026    1.0368    0.0000 C   0  0  0  0  0  0  0  0  0  0  0  0
   14.9949    0.8905    0.0000 N   0  0  0  0  0  0  0  0  0  0  0  0
   15.5644    2.1694    0.0000 N   0  0  0  0  0  0  0  0  0  0  0  0
   12.6691    0.0000    0.0000 C   0  0  0  0  0  0  0  0  0  0  0  0
    4.8413    3.1111    0.0000 N   0  0  0  0  0  0  0  0  0  0  0  0
  1  2  2  0  0  0  0
  2  3  1  0  0  0  0
  3  4  2  0  0  0  0
  4  5  1  0  0  0  0
  5  6  2  0  0  0  0
  6  1  1  0  0  0  0
  5  7  1  0  0  0  0
  7  8  1  0  0  0  0
  8  9  1  0  0  0  0
  9 10  1  0  0  0  0
 10 11  1  0  0  0  0
 11 12  2  0  0  0  0
 12 13  1  0  0  0  0
 13 14  2  0  0  0  0
 14 15  1  0  0  0  0
 15 16  2  0  0  0  0
 16 11  1  0  0  0  0
 17 18  2  0  0  0  0
 18 19  1  0  0  0  0
 19 20  2  0  0  0  0
 20 21  1  0  0  0  0
 21 22  2  0  0  0  0
 22 17  1  0  0  0  0
 19 23  1  0  0  0  0
 23 24  2  0  0  0  0
 24 25  1  0  0  0  0
 25 20  1  0  0  0  0
 23 26  1  0  0  0  0
  8 27  1  1  0  0  0
 13 17  1  0  0  0  0
M  END
>  <Mol_ID> (175)
788

>  <Formula> (175)
C22H22N4O

>  <MolWeight> (175)
358.43628

>  <Cat> (175)
S2670

>  <Name> (175)
A-674563

>  <Synonyms> (175)
N/A

>  <Target> (175)
Akt, CDK, PKA

>  <Form> (175)
Free Base

>  <CAS> (175)
552325-73-2

>  <URL> (175)
http://www.selleckchem.com/products/a-674563.html

$$$$
AS252424.cdx
csChFnd80/05071909292D

 21 23  0  0  0  0  0  0  0  0999 V2000
    1.2082    3.4951    0.0000 C   0  0  0  0  0  0  0  0  0  0  0  0
    1.2082    2.0951    0.0000 C   0  0  0  0  0  0  0  0  0  0  0  0
    2.4207    1.3951    0.0000 C   0  0  0  0  0  0  0  0  0  0  0  0
    3.6331    2.0951    0.0000 C   0  0  0  0  0  0  0  0  0  0  0  0
    3.6331    3.4951    0.0000 C   0  0  0  0  0  0  0  0  0  0  0  0
    2.4207    4.1951    0.0000 C   0  0  0  0  0  0  0  0  0  0  0  0
    0.0000    4.1927    0.0000 F   0  0  0  0  0  0  0  0  0  0  0  0
    2.4207    0.0000    0.0000 O   0  0  0  0  0  0  0  0  0  0  0  0
    5.9936    2.1972    0.0000 O   0  0  0  0  0  0  0  0  0  0  0  0
    4.8610    1.3743    0.0000 C   0  0  0  0  0  0  0  0  0  0  0  0
    5.2936    0.0428    0.0000 C   0  0  0  0  0  0  0  0  0  0  0  0
    6.6936    0.0428    0.0000 C   0  0  0  0  0  0  0  0  0  0  0  0
    7.1262    1.3743    0.0000 C   0  0  0  0  0  0  0  0  0  0  0  0
    8.3386    2.0743    0.0000 C   0  0  0  0  0  0  0  0  0  0  0  0
    9.7386    2.0743    0.0000 C   0  0  0  0  0  0  0  0  0  0  0  0
   10.5615    0.9417    0.0000 S   0  0  0  0  0  0  0  0  0  0  0  0
   11.8930    1.3743    0.0000 C   0  0  0  0  0  0  0  0  0  0  0  0
   11.8930    2.7743    0.0000 N   0  0  0  0  0  0  0  0  0  0  0  0
   10.5615    3.2069    0.0000 C   0  0  0  0  0  0  0  0  0  0  0  0
   10.1304    4.5338    0.0000 O   0  0  0  0  0  0  0  0  0  0  0  0
   13.0217    0.5543    0.0000 O   0  0  0  0  0  0  0  0  0  0  0  0
  1  2  2  0  0  0  0
  2  3  1  0  0  0  0
  3  4  2  0  0  0  0
  4  5  1  0  0  0  0
  5  6  2  0  0  0  0
  6  1  1  0  0  0  0
  1  7  1  0  0  0  0
  3  8  1  0  0  0  0
  9 10  1  0  0  0  0
 10 11  2  0  0  0  0
 11 12  1  0  0  0  0
 12 13  2  0  0  0  0
 13  9  1  0  0  0  0
 10  4  1  0  0  0  0
 13 14  1  0  0  0  0
 14 15  2  0  0  0  0
 15 16  1  0  0  0  0
 16 17  1  0  0  0  0
 17 18  1  0  0  0  0
 18 19  1  0  0  0  0
 19 15  1  0  0  0  0
 19 20  2  0  0  0  0
 17 21  2  0  0  0  0
M  END
>  <Mol_ID> (176)
789

>  <Formula> (176)
C14H8FNO4S

>  <MolWeight> (176)
305.2810232

>  <Cat> (176)
S2671

>  <Name> (176)
AS-252424

>  <Synonyms> (176)
N/A

>  <Target> (176)
PI3K

>  <Form> (176)
Free Base

>  <CAS> (176)
900515-16-4

>  <URL> (176)
http://www.selleckchem.com/products/as-252424.html

$$$$
AS604850.cdx
csChFnd80/05071909292D

 19 21  0  0  0  0  0  0  0  0999 V2000
    3.3668    2.9579    0.0000 C   0  0  0  0  0  0  0  0  0  0  0  0
    3.3668    1.5579    0.0000 C   0  0  0  0  0  0  0  0  0  0  0  0
    4.5793    0.8579    0.0000 C   0  0  0  0  0  0  0  0  0  0  0  0
    5.7917    1.5579    0.0000 C   0  0  0  0  0  0  0  0  0  0  0  0
    5.7917    2.9579    0.0000 C   0  0  0  0  0  0  0  0  0  0  0  0
    4.5793    3.6579    0.0000 C   0  0  0  0  0  0  0  0  0  0  0  0
    2.0353    3.3906    0.0000 O   0  0  0  0  0  0  0  0  0  0  0  0
    1.2124    2.2579    0.0000 C   0  0  0  0  0  0  0  0  0  0  0  0
    2.0353    1.1253    0.0000 O   0  0  0  0  0  0  0  0  0  0  0  0
    0.0000    2.9579    0.0000 F   0  0  0  0  0  0  0  0  0  0  0  0
    0.0000    1.5579    0.0000 F   0  0  0  0  0  0  0  0  0  0  0  0
    6.9999    3.6555    0.0000 C   0  0  0  0  0  0  0  0  0  0  0  0
    8.2081    2.9579    0.0000 C   0  0  0  0  0  0  0  0  0  0  0  0
    8.3545    1.5656    0.0000 S   0  0  0  0  0  0  0  0  0  0  0  0
    9.7239    1.2745    0.0000 C   0  0  0  0  0  0  0  0  0  0  0  0
   10.4239    2.4870    0.0000 N   0  0  0  0  0  0  0  0  0  0  0  0
    9.4871    3.5274    0.0000 C   0  0  0  0  0  0  0  0  0  0  0  0
    9.7772    4.8920    0.0000 O   0  0  0  0  0  0  0  0  0  0  0  0
   10.2913    0.0000    0.0000 O   0  0  0  0  0  0  0  0  0  0  0  0
  1  2  2  0  0  0  0
  2  3  1  0  0  0  0
  3  4  2  0  0  0  0
  4  5  1  0  0  0  0
  5  6  2  0  0  0  0
  6  1  1  0  0  0  0
  1  7  1  0  0  0  0
  7  8  1  0  0  0  0
  8  9  1  0  0  0  0
  9  2  1  0  0  0  0
  8 10  1  0  0  0  0
  8 11  1  0  0  0  0
  5 12  1  0  0  0  0
 12 13  2  0  0  0  0
 13 14  1  0  0  0  0
 14 15  1  0  0  0  0
 15 16  1  0  0  0  0
 16 17  1  0  0  0  0
 17 13  1  0  0  0  0
 17 18  2  0  0  0  0
 15 19  2  0  0  0  0
M  END
>  <Mol_ID> (177)
790

>  <Formula> (177)
C11H5F2NO4S

>  <MolWeight> (177)
285.2235064

>  <Cat> (177)
S2681

>  <Name> (177)
AS-604850

>  <Synonyms> (177)
N/A

>  <Target> (177)
PI3K

>  <Form> (177)
Free Base

>  <CAS> (177)
648449-76-7 

>  <URL> (177)
http://www.selleckchem.com/products/as-604850.html

$$$$
CAY10505.cdx
csChFnd80/05071909292D

 20 22  0  0  0  0  0  0  0  0999 V2000
    1.2082    4.7860    0.0000 C   0  0  0  0  0  0  0  0  0  0  0  0
    1.2082    3.3860    0.0000 C   0  0  0  0  0  0  0  0  0  0  0  0
    2.4207    2.6860    0.0000 C   0  0  0  0  0  0  0  0  0  0  0  0
    3.6331    3.3860    0.0000 C   0  0  0  0  0  0  0  0  0  0  0  0
    3.6331    4.7860    0.0000 C   0  0  0  0  0  0  0  0  0  0  0  0
    2.4207    5.4860    0.0000 C   0  0  0  0  0  0  0  0  0  0  0  0
    0.0000    5.4836    0.0000 F   0  0  0  0  0  0  0  0  0  0  0  0
    6.0665    3.4152    0.0000 O   0  0  0  0  0  0  0  0  0  0  0  0
    4.9339    2.5923    0.0000 C   0  0  0  0  0  0  0  0  0  0  0  0
    5.3665    1.2608    0.0000 C   0  0  0  0  0  0  0  0  0  0  0  0
    6.7665    1.2608    0.0000 C   0  0  0  0  0  0  0  0  0  0  0  0
    7.1991    2.5923    0.0000 C   0  0  0  0  0  0  0  0  0  0  0  0
    8.5260    3.0234    0.0000 C   0  0  0  0  0  0  0  0  0  0  0  0
    9.5628    2.0899    0.0000 C   0  0  0  0  0  0  0  0  0  0  0  0
    9.4164    0.6976    0.0000 C   0  0  0  0  0  0  0  0  0  0  0  0
   10.6954    0.1281    0.0000 N   0  0  0  0  0  0  0  0  0  0  0  0
   11.6322    1.1685    0.0000 C   0  0  0  0  0  0  0  0  0  0  0  0
   10.9322    2.3810    0.0000 S   0  0  0  0  0  0  0  0  0  0  0  0
    8.2082    0.0000    0.0000 O   0  0  0  0  0  0  0  0  0  0  0  0
   13.0197    1.0227    0.0000 O   0  0  0  0  0  0  0  0  0  0  0  0
  1  2  2  0  0  0  0
  2  3  1  0  0  0  0
  3  4  2  0  0  0  0
  4  5  1  0  0  0  0
  5  6  2  0  0  0  0
  6  1  1  0  0  0  0
  1  7  1  0  0  0  0
  8  9  1  0  0  0  0
  9 10  2  0  0  0  0
 10 11  1  0  0  0  0
 11 12  2  0  0  0  0
 12  8  1  0  0  0  0
  4  9  1  0  0  0  0
 12 13  1  0  0  0  0
 13 14  2  0  0  0  0
 14 15  1  0  0  0  0
 15 16  1  0  0  0  0
 16 17  1  0  0  0  0
 17 18  1  0  0  0  0
 18 14  1  0  0  0  0
 15 19  2  0  0  0  0
 17 20  2  0  0  0  0
M  END
>  <Mol_ID> (178)
791

>  <Formula> (178)
C14H8FNO3S

>  <MolWeight> (178)
289.2816232

>  <Cat> (178)
S2682

>  <Name> (178)
CAY10505

>  <Synonyms> (178)
N/A

>  <Target> (178)
PI3K

>  <Form> (178)
Free Base

>  <CAS> (178)
1218777-13-9

>  <URL> (178)
http://www.selleckchem.com/products/cay10505.html

$$$$
CHIR124.cdx
csChFnd80/05071909292D

 30 35  0  0  0  0  0  0  0  0999 V2000
    6.1422    7.2892    0.0000 C   0  0  0  0  0  0  0  0  0  0  0  0
    6.1422    5.8892    0.0000 C   0  0  0  0  0  0  0  0  0  0  0  0
    7.3546    5.1892    0.0000 C   0  0  0  0  0  0  0  0  0  0  0  0
    8.5670    5.8892    0.0000 C   0  0  0  0  0  0  0  0  0  0  0  0
    8.5670    7.2892    0.0000 C   0  0  0  0  0  0  0  0  0  0  0  0
    7.3546    7.9892    0.0000 N   0  0  0  0  0  0  0  0  0  0  0  0
    2.4234    3.7138    0.0000 C   0  0  0  0  0  0  0  0  0  0  0  0
    2.4234    5.1129    0.0000 C   0  0  0  0  0  0  0  0  0  0  0  0
    3.6346    5.8150    0.0000 N   0  0  0  0  0  0  0  0  0  0  0  0
    4.8483    5.1129    0.0000 C   0  0  0  0  0  0  0  0  0  0  0  0
    4.8483    3.7138    0.0000 N   0  0  0  0  0  0  0  0  0  0  0  0
    1.2117    5.8125    0.0000 C   0  0  0  0  0  0  0  0  0  0  0  0
    0.0000    5.1129    0.0000 C   0  0  0  0  0  0  0  0  0  0  0  0
    0.0000    3.7138    0.0000 C   0  0  0  0  0  0  0  0  0  0  0  0
    1.2117    3.0143    0.0000 C   0  0  0  0  0  0  0  0  0  0  0  0
    4.9339    7.9868    0.0000 O   0  0  0  0  0  0  0  0  0  0  0  0
    9.7795    5.1892    0.0000 C   0  0  0  0  0  0  0  0  0  0  0  0
   10.9919    5.8892    0.0000 C   0  0  0  0  0  0  0  0  0  0  0  0
   10.9919    7.2892    0.0000 C   0  0  0  0  0  0  0  0  0  0  0  0
    9.7795    7.9892    0.0000 C   0  0  0  0  0  0  0  0  0  0  0  0
   12.2001    5.1917    0.0000 Cl  0  0  0  0  0  0  0  0  0  0  0  0
    7.3546    2.7976    0.0000 N   0  0  0  0  0  0  0  0  0  0  0  0
    6.1464    2.1000    0.0000 C   0  0  1  0  0  0  0  0  0  0  0  0
    4.9339    2.8000    0.0000 C   0  0  0  0  0  0  0  0  0  0  0  0
    3.7215    2.1000    0.0000 C   0  0  0  0  0  0  0  0  0  0  0  0
    3.7215    0.7000    0.0000 C   0  0  0  0  0  0  0  0  0  0  0  0
    4.9339    0.0000    0.0000 N   0  0  0  0  0  0  0  0  0  0  0  0
    6.1464    0.7000    0.0000 C   0  0  0  0  0  0  0  0  0  0  0  0
    4.5109    0.9747    0.0000 C   0  0  0  0  0  0  0  0  0  0  0  0
    5.4588    1.7038    0.0000 C   0  0  0  0  0  0  0  0  0  0  0  0
  1  2  1  0  0  0  0
  2  3  2  0  0  0  0
  3  4  1  0  0  0  0
  4  5  2  0  0  0  0
  5  6  1  0  0  0  0
  6  1  1  0  0  0  0
  7  8  2  0  0  0  0
  8  9  1  0  0  0  0
  9 10  2  0  0  0  0
 10 11  1  0  0  0  0
  7 11  1  0  0  0  0
 10  2  1  0  0  0  0
  8 12  1  0  0  0  0
 12 13  2  0  0  0  0
 13 14  1  0  0  0  0
 14 15  2  0  0  0  0
 15  7  1  0  0  0  0
  1 16  2  0  0  0  0
  4 17  1  0  0  0  0
 17 18  2  0  0  0  0
 18 19  1  0  0  0  0
 19 20  2  0  0  0  0
 20  5  1  0  0  0  0
 18 21  1  0  0  0  0
  3 22  1  0  0  0  0
 23 22  1  6  0  0  0
 23 24  1  0  0  0  0
 24 25  1  0  0  0  0
 25 26  1  0  0  0  0
 26 27  1  0  0  0  0
 27 28  1  0  0  0  0
 28 23  1  0  0  0  0
 27 29  1  0  0  0  0
 24 30  1  0  0  0  0
 30 29  1  0  0  0  0
M  END
>  <Mol_ID> (179)
792

>  <Formula> (179)
C23H22ClN5O

>  <MolWeight> (179)
419.90668

>  <Cat> (179)
S2683

>  <Name> (179)
CHIR-124

>  <Synonyms> (179)
N/A

>  <Target> (179)
Chk

>  <Form> (179)
Free Base

>  <CAS> (179)
405168-58-3

>  <URL> (179)
http://www.selleckchem.com/products/chir-124.html

$$$$
PF-00562271.cdx
csChFnd80/05071909292D

 45 48  0  0  0  0  0  0  0  0999 V2000
    1.2082   11.2146    0.0000 C   0  0  0  0  0  0  0  0  0  0  0  0
    1.2082    9.8146    0.0000 N   0  0  0  0  0  0  0  0  0  0  0  0
    2.4207    9.1146    0.0000 C   0  0  0  0  0  0  0  0  0  0  0  0
    3.6331    9.8146    0.0000 C   0  0  0  0  0  0  0  0  0  0  0  0
    3.6331   11.2146    0.0000 C   0  0  0  0  0  0  0  0  0  0  0  0
    2.4207   11.9146    0.0000 C   0  0  0  0  0  0  0  0  0  0  0  0
    2.4207    7.7195    0.0000 N   0  0  0  0  0  0  0  0  0  0  0  0
    3.6289    7.0219    0.0000 C   0  0  0  0  0  0  0  0  0  0  0  0
    1.2124    7.0219    0.0000 S   0  0  0  0  0  0  0  0  0  0  0  0
    4.8413    9.1170    0.0000 C   0  0  0  0  0  0  0  0  0  0  0  0
    6.0496    9.8146    0.0000 N   0  0  0  0  0  0  0  0  0  0  0  0
    7.2578    9.1170    0.0000 C   0  0  0  0  0  0  0  0  0  0  0  0
    7.2578    7.7170    0.0000 C   0  0  0  0  0  0  0  0  0  0  0  0
    8.4702    7.0170    0.0000 C   0  0  0  0  0  0  0  0  0  0  0  0
    9.6827    7.7170    0.0000 N   0  0  0  0  0  0  0  0  0  0  0  0
    9.6827    9.1170    0.0000 C   0  0  0  0  0  0  0  0  0  0  0  0
    8.4702    9.8170    0.0000 N   0  0  0  0  0  0  0  0  0  0  0  0
    6.0496    7.0195    0.0000 C   0  0  0  0  0  0  0  0  0  0  0  0
    4.8413    7.7170    0.0000 F   0  0  0  0  0  0  0  0  0  0  0  0
    6.0496    5.6243    0.0000 F   0  0  0  0  0  0  0  0  0  0  0  0
    4.8371    6.3195    0.0000 F   0  0  0  0  0  0  0  0  0  0  0  0
    0.0000    6.3219    0.0000 O   0  0  0  0  0  0  0  0  0  0  0  0
    0.5149    8.2301    0.0000 C   0  0  0  0  0  0  0  0  0  0  0  0
    1.9100    5.8137    0.0000 O   0  0  0  0  0  0  0  0  0  0  0  0
   10.8909    9.8146    0.0000 N   0  0  0  0  0  0  0  0  0  0  0  0
   12.0991    9.1170    0.0000 C   0  0  0  0  0  0  0  0  0  0  0  0
   12.0991    7.7170    0.0000 C   0  0  0  0  0  0  0  0  0  0  0  0
   13.3115    7.0170    0.0000 C   0  0  0  0  0  0  0  0  0  0  0  0
   14.5240    7.7170    0.0000 C   0  0  0  0  0  0  0  0  0  0  0  0
   14.5240    9.1170    0.0000 C   0  0  0  0  0  0  0  0  0  0  0  0
   13.3115    9.8170    0.0000 C   0  0  0  0  0  0  0  0  0  0  0  0
   15.8555    7.2844    0.0000 N   0  0  0  0  0  0  0  0  0  0  0  0
   16.6784    8.4170    0.0000 C   0  0  0  0  0  0  0  0  0  0  0  0
   15.8555    9.5496    0.0000 C   0  0  0  0  0  0  0  0  0  0  0  0
   18.0735    8.4170    0.0000 O   0  0  0  0  0  0  0  0  0  0  0  0
    8.7916    2.1000    0.0000 C   0  0  0  0  0  0  0  0  0  0  0  0
    8.7916    0.7000    0.0000 C   0  0  0  0  0  0  0  0  0  0  0  0
   10.0040    0.0000    0.0000 C   0  0  0  0  0  0  0  0  0  0  0  0
   11.2164    0.7000    0.0000 C   0  0  0  0  0  0  0  0  0  0  0  0
   11.2164    2.1000    0.0000 C   0  0  0  0  0  0  0  0  0  0  0  0
   10.0040    2.8000    0.0000 C   0  0  0  0  0  0  0  0  0  0  0  0
   12.4247    2.7976    0.0000 S   0  0  0  0  0  0  0  0  0  0  0  0
   13.6329    2.1000    0.0000 O   0  0  0  0  0  0  0  0  0  0  0  0
   11.7247    4.0100    0.0000 O   0  0  0  0  0  0  0  0  0  0  0  0
   13.1247    4.0100    0.0000 O   0  0  0  0  0  0  0  0  0  0  0  0
  1  2  2  0  0  0  0
  2  3  1  0  0  0  0
  3  4  2  0  0  0  0
  4  5  1  0  0  0  0
  5  6  2  0  0  0  0
  6  1  1  0  0  0  0
  3  7  1  0  0  0  0
  7  8  1  0  0  0  0
  7  9  1  0  0  0  0
  4 10  1  0  0  0  0
 10 11  1  0  0  0  0
 11 12  1  0  0  0  0
 12 13  2  0  0  0  0
 13 14  1  0  0  0  0
 14 15  2  0  0  0  0
 15 16  1  0  0  0  0
 16 17  2  0  0  0  0
 17 12  1  0  0  0  0
 13 18  1  0  0  0  0
 18 19  1  0  0  0  0
 18 20  1  0  0  0  0
 18 21  1  0  0  0  0
  9 22  2  0  0  0  0
  9 23  1  0  0  0  0
  9 24  2  0  0  0  0
 16 25  1  0  0  0  0
 25 26  1  0  0  0  0
 26 27  2  0  0  0  0
 27 28  1  0  0  0  0
 28 29  2  0  0  0  0
 29 30  1  0  0  0  0
 30 31  2  0  0  0  0
 31 26  1  0  0  0  0
 29 32  1  0  0  0  0
 32 33  1  0  0  0  0
 33 34  1  0  0  0  0
 34 30  1  0  0  0  0
 33 35  2  0  0  0  0
 36 37  2  0  0  0  0
 37 38  1  0  0  0  0
 38 39  2  0  0  0  0
 39 40  1  0  0  0  0
 40 41  2  0  0  0  0
 41 36  1  0  0  0  0
 40 42  1  0  0  0  0
 42 43  1  0  0  0  0
 42 44  2  0  0  0  0
 42 45  2  0  0  0  0
M  END
>  <Mol_ID> (180)
799

>  <Formula> (180)
C27H26F3N7O6S2

>  <MolWeight> (180)
665.6638496

>  <Cat> (180)
S2672

>  <Name> (180)
PF-00562271

>  <Synonyms> (180)
N/A

>  <Target> (180)
FAK

>  <Form> (180)
Benzenesulfonic

>  <CAS> (180)
939791-38-5

>  <URL> (180)
http://www.selleckchem.com/products/pf-00562271.html

$$$$
R547.cdx
csChFnd80/05071909292D

 30 32  0  0  0  0  0  0  0  0999 V2000
    6.2879    7.2704    0.0000 N   0  0  0  0  0  0  0  0  0  0  0  0
    5.5879    6.0580    0.0000 C   0  0  0  0  0  0  0  0  0  0  0  0
    6.2879    4.8455    0.0000 N   0  0  0  0  0  0  0  0  0  0  0  0
    7.6879    4.8455    0.0000 C   0  0  0  0  0  0  0  0  0  0  0  0
    8.3879    6.0580    0.0000 C   0  0  0  0  0  0  0  0  0  0  0  0
    7.6879    7.2704    0.0000 C   0  0  0  0  0  0  0  0  0  0  0  0
    8.3854    8.4786    0.0000 N   0  0  0  0  0  0  0  0  0  0  0  0
    9.7830    6.0580    0.0000 C   0  0  0  0  0  0  0  0  0  0  0  0
   10.4806    4.8497    0.0000 C   0  0  0  0  0  0  0  0  0  0  0  0
   10.4806    7.2662    0.0000 O   0  0  0  0  0  0  0  0  0  0  0  0
    9.7806    3.6373    0.0000 C   0  0  0  0  0  0  0  0  0  0  0  0
   10.4806    2.4249    0.0000 C   0  0  0  0  0  0  0  0  0  0  0  0
   11.8806    2.4249    0.0000 C   0  0  0  0  0  0  0  0  0  0  0  0
   12.5806    3.6373    0.0000 C   0  0  0  0  0  0  0  0  0  0  0  0
   11.8806    4.8497    0.0000 C   0  0  0  0  0  0  0  0  0  0  0  0
    8.3854    3.6373    0.0000 F   0  0  0  0  0  0  0  0  0  0  0  0
    9.7830    1.2166    0.0000 F   0  0  0  0  0  0  0  0  0  0  0  0
   12.5781    6.0580    0.0000 O   0  0  0  0  0  0  0  0  0  0  0  0
   13.9781    6.0580    0.0000 C   0  0  0  0  0  0  0  0  0  0  0  0
    4.1927    6.0580    0.0000 N   0  0  0  0  0  0  0  0  0  0  0  0
    3.4927    4.8455    0.0000 C   0  0  0  0  0  0  0  0  0  0  0  0
    2.0927    4.8455    0.0000 C   0  0  0  0  0  0  0  0  0  0  0  0
    1.3927    3.6331    0.0000 C   0  0  0  0  0  0  0  0  0  0  0  0
    2.0927    2.4207    0.0000 N   0  0  0  0  0  0  0  0  0  0  0  0
    3.4927    2.4207    0.0000 C   0  0  0  0  0  0  0  0  0  0  0  0
    4.1927    3.6331    0.0000 C   0  0  0  0  0  0  0  0  0  0  0  0
    1.3951    1.2124    0.0000 S   0  0  0  0  0  0  0  0  0  0  0  0
    0.0000    1.2124    0.0000 O   0  0  0  0  0  0  0  0  0  0  0  0
    2.0927    0.0042    0.0000 C   0  0  0  0  0  0  0  0  0  0  0  0
    0.6951    0.0000    0.0000 O   0  0  0  0  0  0  0  0  0  0  0  0
  1  2  2  0  0  0  0
  2  3  1  0  0  0  0
  3  4  2  0  0  0  0
  4  5  1  0  0  0  0
  5  6  2  0  0  0  0
  6  1  1  0  0  0  0
  6  7  1  0  0  0  0
  5  8  1  0  0  0  0
  8  9  1  0  0  0  0
  8 10  2  0  0  0  0
  9 11  2  0  0  0  0
 11 12  1  0  0  0  0
 12 13  2  0  0  0  0
 13 14  1  0  0  0  0
 14 15  2  0  0  0  0
 15  9  1  0  0  0  0
 11 16  1  0  0  0  0
 12 17  1  0  0  0  0
 15 18  1  0  0  0  0
 18 19  1  0  0  0  0
  2 20  1  0  0  0  0
 20 21  1  0  0  0  0
 21 22  1  0  0  0  0
 22 23  1  0  0  0  0
 23 24  1  0  0  0  0
 24 25  1  0  0  0  0
 25 26  1  0  0  0  0
 26 21  1  0  0  0  0
 24 27  1  0  0  0  0
 27 28  2  0  0  0  0
 27 29  1  0  0  0  0
 27 30  2  0  0  0  0
M  END
>  <Mol_ID> (181)
800

>  <Formula> (181)
C18H21F2N5O4S

>  <MolWeight> (181)
441.4522464

>  <Cat> (181)
S2688

>  <Name> (181)
R547

>  <Synonyms> (181)
N/A

>  <Target> (181)
CDK

>  <Form> (181)
Free Base

>  <CAS> (181)
741713-40-6

>  <URL> (181)
http://www.selleckchem.com/products/r547.html

$$$$
WAY-600.cdx
csChFnd80/05071909292D

 37 43  0  0  0  0  0  0  0  0999 V2000
    2.1544    6.9643    0.0000 C   0  0  0  0  0  0  0  0  0  0  0  0
    2.1544    5.5643    0.0000 C   0  0  0  0  0  0  0  0  0  0  0  0
    3.3668    4.8643    0.0000 C   0  0  0  0  0  0  0  0  0  0  0  0
    4.5793    5.5643    0.0000 C   0  0  0  0  0  0  0  0  0  0  0  0
    4.5793    6.9643    0.0000 C   0  0  0  0  0  0  0  0  0  0  0  0
    3.3668    7.6643    0.0000 C   0  0  0  0  0  0  0  0  0  0  0  0
    5.7875    7.6619    0.0000 C   0  0  0  0  0  0  0  0  0  0  0  0
    6.9999    6.9619    0.0000 N   0  0  0  0  0  0  0  0  0  0  0  0
    8.2123    7.6619    0.0000 C   0  0  0  0  0  0  0  0  0  0  0  0
    8.2123    9.0619    0.0000 C   0  0  0  0  0  0  0  0  0  0  0  0
    6.9999    9.7619    0.0000 C   0  0  0  0  0  0  0  0  0  0  0  0
    5.7875    9.0619    0.0000 N   0  0  0  0  0  0  0  0  0  0  0  0
    0.8229    7.3970    0.0000 C   0  0  0  0  0  0  0  0  0  0  0  0
    0.0000    6.2643    0.0000 C   0  0  0  0  0  0  0  0  0  0  0  0
    0.8229    5.1317    0.0000 N   0  0  0  0  0  0  0  0  0  0  0  0
    9.5438    7.2293    0.0000 N   0  0  0  0  0  0  0  0  0  0  0  0
   10.3667    8.3619    0.0000 N   0  0  0  0  0  0  0  0  0  0  0  0
    9.5438    9.4945    0.0000 C   0  0  0  0  0  0  0  0  0  0  0  0
    6.9999   11.1571    0.0000 N   0  0  0  0  0  0  0  0  0  0  0  0
    8.2123   11.8571    0.0000 C   0  0  0  0  0  0  0  0  0  0  0  0
    8.2123   13.2571    0.0000 C   0  0  0  0  0  0  0  0  0  0  0  0
    6.9999   13.9571    0.0000 O   0  0  0  0  0  0  0  0  0  0  0  0
    5.7875   13.2571    0.0000 C   0  0  0  0  0  0  0  0  0  0  0  0
    5.7875   11.8571    0.0000 C   0  0  0  0  0  0  0  0  0  0  0  0
    9.9750    5.9024    0.0000 C   0  0  0  0  0  0  0  0  0  0  0  0
    9.0382    4.8620    0.0000 C   0  0  0  0  0  0  0  0  0  0  0  0
    9.4708    3.5306    0.0000 C   0  0  0  0  0  0  0  0  0  0  0  0
   10.8402    3.2395    0.0000 N   0  0  0  0  0  0  0  0  0  0  0  0
   11.7770    4.2799    0.0000 C   0  0  0  0  0  0  0  0  0  0  0  0
   11.3444    5.6114    0.0000 C   0  0  0  0  0  0  0  0  0  0  0  0
   11.2713    1.9126    0.0000 C   0  0  0  0  0  0  0  0  0  0  0  0
   12.6360    1.6226    0.0000 C   0  0  0  0  0  0  0  0  0  0  0  0
   13.0686    0.2911    0.0000 C   0  0  0  0  0  0  0  0  0  0  0  0
   14.4380    0.0000    0.0000 C   0  0  0  0  0  0  0  0  0  0  0  0
   15.3748    1.0404    0.0000 C   0  0  0  0  0  0  0  0  0  0  0  0
   14.9422    2.3719    0.0000 N   0  0  0  0  0  0  0  0  0  0  0  0
   13.5728    2.6630    0.0000 C   0  0  0  0  0  0  0  0  0  0  0  0
  1  2  2  0  0  0  0
  2  3  1  0  0  0  0
  3  4  2  0  0  0  0
  4  5  1  0  0  0  0
  5  6  2  0  0  0  0
  6  1  1  0  0  0  0
  5  7  1  0  0  0  0
  7  8  2  0  0  0  0
  8  9  1  0  0  0  0
  9 10  2  0  0  0  0
 10 11  1  0  0  0  0
 11 12  2  0  0  0  0
 12  7  1  0  0  0  0
  1 13  1  0  0  0  0
 13 14  2  0  0  0  0
 14 15  1  0  0  0  0
 15  2  1  0  0  0  0
  9 16  1  0  0  0  0
 16 17  1  0  0  0  0
 17 18  2  0  0  0  0
 18 10  1  0  0  0  0
 11 19  1  0  0  0  0
 19 20  1  0  0  0  0
 20 21  1  0  0  0  0
 21 22  1  0  0  0  0
 22 23  1  0  0  0  0
 23 24  1  0  0  0  0
 24 19  1  0  0  0  0
 16 25  1  0  0  0  0
 25 26  1  0  0  0  0
 26 27  1  0  0  0  0
 27 28  1  0  0  0  0
 28 29  1  0  0  0  0
 29 30  1  0  0  0  0
 30 25  1  0  0  0  0
 28 31  1  0  0  0  0
 31 32  1  0  0  0  0
 32 33  2  0  0  0  0
 33 34  1  0  0  0  0
 34 35  2  0  0  0  0
 35 36  1  0  0  0  0
 36 37  2  0  0  0  0
 37 32  1  0  0  0  0
M  END
>  <Mol_ID> (182)
802

>  <Formula> (182)
C28H30N8O

>  <MolWeight> (182)
494.5908

>  <Cat> (182)
S2689

>  <Name> (182)
WAY-600

>  <Synonyms> (182)
N/A 

>  <Target> (182)
mTOR

>  <Form> (182)
Free Base

>  <CAS> (182)
1062159-35-6 

>  <URL> (182)
http://www.selleckchem.com/products/way-600.html

$$$$
WYE125132.cdx
csChFnd80/05071909292D

 38 44  0  0  0  0  0  0  0  0999 V2000
    6.2830    8.4744    0.0000 C   0  0  0  0  0  0  0  0  0  0  0  0
    5.5830    7.2620    0.0000 N   0  0  0  0  0  0  0  0  0  0  0  0
    6.2830    6.0495    0.0000 C   0  0  0  0  0  0  0  0  0  0  0  0
    7.6830    6.0495    0.0000 N   0  0  0  0  0  0  0  0  0  0  0  0
    8.3830    7.2620    0.0000 C   0  0  0  0  0  0  0  0  0  0  0  0
    7.6830    8.4744    0.0000 C   0  0  0  0  0  0  0  0  0  0  0  0
    9.7524    7.5531    0.0000 N   0  0  0  0  0  0  0  0  0  0  0  0
    9.8987    8.9454    0.0000 N   0  0  0  0  0  0  0  0  0  0  0  0
    8.6198    9.5148    0.0000 C   0  0  0  0  0  0  0  0  0  0  0  0
    2.8545   11.3327    0.0000 C   0  0  3  0  0  0  0  0  0  0  0  0
    1.5517   10.8210    0.0000 C   0  0  0  0  0  0  0  0  0  0  0  0
    2.1499   12.0867    0.0000 C   0  0  0  0  0  0  0  0  0  0  0  0
    3.4330   12.6454    0.0000 C   0  0  3  0  0  0  0  0  0  0  0  0
    2.8545   14.0965    0.0000 O   0  0  0  0  0  0  0  0  0  0  0  0
    4.7185   12.0916    0.0000 C   0  0  0  0  0  0  0  0  0  0  0  0
    4.1623   10.8333    0.0000 C   0  0  0  0  0  0  0  0  0  0  0  0
    5.4725    9.8024    0.0000 N   0  0  0  0  0  0  0  0  0  0  0  0
   10.7892    6.6195    0.0000 C   0  0  0  0  0  0  0  0  0  0  0  0
    5.5854    4.8413    0.0000 C   0  0  0  0  0  0  0  0  0  0  0  0
   10.4981    5.2501    0.0000 C   0  0  0  0  0  0  0  0  0  0  0  0
   11.5385    4.3133    0.0000 C   0  0  0  0  0  0  0  0  0  0  0  0
   12.8700    4.7460    0.0000 C   0  0  0  0  0  0  0  0  0  0  0  0
   13.1611    6.1154    0.0000 C   0  0  0  0  0  0  0  0  0  0  0  0
   12.1207    7.0522    0.0000 C   0  0  0  0  0  0  0  0  0  0  0  0
   12.7237    3.3536    0.0000 O   0  0  0  0  0  0  0  0  0  0  0  0
   14.0026    2.7842    0.0000 C   0  0  0  0  0  0  0  0  0  0  0  0
   14.9394    3.8246    0.0000 C   0  0  0  0  0  0  0  0  0  0  0  0
   14.2394    5.0370    0.0000 O   0  0  0  0  0  0  0  0  0  0  0  0
    4.1854    4.8413    0.0000 C   0  0  0  0  0  0  0  0  0  0  0  0
    3.4854    3.6289    0.0000 C   0  0  0  0  0  0  0  0  0  0  0  0
    4.1854    2.4165    0.0000 C   0  0  0  0  0  0  0  0  0  0  0  0
    5.5854    2.4165    0.0000 C   0  0  0  0  0  0  0  0  0  0  0  0
    6.2854    3.6289    0.0000 C   0  0  0  0  0  0  0  0  0  0  0  0
    3.4878    1.2082    0.0000 N   0  0  0  0  0  0  0  0  0  0  0  0
    2.0927    1.2082    0.0000 C   0  0  0  0  0  0  0  0  0  0  0  0
    1.3951    2.4165    0.0000 O   0  0  0  0  0  0  0  0  0  0  0  0
    1.3951    0.0000    0.0000 N   0  0  0  0  0  0  0  0  0  0  0  0
    0.0000    0.0000    0.0000 C   0  0  0  0  0  0  0  0  0  0  0  0
  1  2  2  0  0  0  0
  2  3  1  0  0  0  0
  3  4  2  0  0  0  0
  4  5  1  0  0  0  0
  5  6  2  0  0  0  0
  6  1  1  0  0  0  0
  5  7  1  0  0  0  0
  7  8  1  0  0  0  0
  8  9  2  0  0  0  0
  9  6  1  0  0  0  0
 10 11  1  0  0  0  0
 11 12  1  0  0  0  0
 12 13  1  0  0  0  0
 10 14  1  0  0  0  0
 13 14  1  0  0  0  0
 13 15  1  0  0  0  0
 10 16  1  0  0  0  0
 15 17  1  0  0  0  0
 16 17  1  0  0  0  0
  1 17  1  0  0  0  0
  7 18  1  0  0  0  0
  3 19  1  0  0  0  0
 18 20  1  0  0  0  0
 20 21  1  0  0  0  0
 21 22  1  0  0  0  0
 22 23  1  0  0  0  0
 23 24  1  0  0  0  0
 24 18  1  0  0  0  0
 22 25  1  0  0  0  0
 25 26  1  0  0  0  0
 26 27  1  0  0  0  0
 27 28  1  0  0  0  0
 28 22  1  0  0  0  0
 19 29  2  0  0  0  0
 29 30  1  0  0  0  0
 30 31  2  0  0  0  0
 31 32  1  0  0  0  0
 32 33  2  0  0  0  0
 33 19  1  0  0  0  0
 31 34  1  0  0  0  0
 34 35  1  0  0  0  0
 35 36  2  0  0  0  0
 35 37  1  0  0  0  0
 37 38  1  0  0  0  0
M  END
>  <Mol_ID> (183)
803

>  <Formula> (183)
C27H33N7O4

>  <MolWeight> (183)
519.59542

>  <Cat> (183)
S2661

>  <Name> (183)
WYE-125132

>  <Synonyms> (183)
N/A

>  <Target> (183)
mTOR

>  <Form> (183)
Free Base

>  <CAS> (183)
1144068-46-1

>  <URL> (183)
http://www.selleckchem.com/products/wye-125132.html

$$$$
BMS-754807.cdx
csChFnd80/05071909292D

 34 39  0  0  0  0  0  0  0  0999 V2000
    2.1544    3.7810    0.0000 C   0  0  0  0  0  0  0  0  0  0  0  0
    2.1544    2.3810    0.0000 N   0  0  0  0  0  0  0  0  0  0  0  0
    3.3668    1.6810    0.0000 N   0  0  0  0  0  0  0  0  0  0  0  0
    4.5793    2.3810    0.0000 C   0  0  0  0  0  0  0  0  0  0  0  0
    4.5793    3.7810    0.0000 N   0  0  0  0  0  0  0  0  0  0  0  0
    3.3668    4.4810    0.0000 C   0  0  0  0  0  0  0  0  0  0  0  0
    0.8229    4.2136    0.0000 C   0  0  0  0  0  0  0  0  0  0  0  0
    0.0000    3.0810    0.0000 C   0  0  0  0  0  0  0  0  0  0  0  0
    0.8229    1.9484    0.0000 C   0  0  0  0  0  0  0  0  0  0  0  0
    3.3668    5.8761    0.0000 N   0  0  0  0  0  0  0  0  0  0  0  0
    4.5750    6.5737    0.0000 C   0  0  0  0  0  0  0  0  0  0  0  0
    5.7875    1.6834    0.0000 N   0  0  0  0  0  0  0  0  0  0  0  0
    5.8540    6.0043    0.0000 C   0  0  0  0  0  0  0  0  0  0  0  0
    6.7908    7.0447    0.0000 C   0  0  0  0  0  0  0  0  0  0  0  0
    6.0908    8.2571    0.0000 N   0  0  0  0  0  0  0  0  0  0  0  0
    4.7214    7.9660    0.0000 N   0  0  0  0  0  0  0  0  0  0  0  0
    5.9338    0.2911    0.0000 C   0  0  0  0  0  0  0  0  0  0  0  0
    7.3032    0.0000    0.0000 C   0  0  0  0  0  0  0  0  0  0  0  0
    8.0032    1.2124    0.0000 C   0  0  0  0  0  0  0  0  0  0  0  0
    7.0664    2.2528    0.0000 C   0  0  2  0  0  0  0  0  0  0  0  0
    8.1783    6.8988    0.0000 C   0  0  0  0  0  0  0  0  0  0  0  0
    9.3109    6.0759    0.0000 C   0  0  0  0  0  0  0  0  0  0  0  0
    9.4573    7.4683    0.0000 C   0  0  0  0  0  0  0  0  0  0  0  0
    6.3664    3.4653    0.0000 C   0  0  0  0  0  0  0  0  0  0  0  0
    8.2789    2.9528    0.0000 C   0  0  0  0  0  0  0  0  0  0  0  0
    8.2789    4.3480    0.0000 O   0  0  0  0  0  0  0  0  0  0  0  0
    9.4871    2.2553    0.0000 N   0  0  0  0  0  0  0  0  0  0  0  0
   10.6953    2.9528    0.0000 C   0  0  0  0  0  0  0  0  0  0  0  0
   11.9078    2.2528    0.0000 C   0  0  0  0  0  0  0  0  0  0  0  0
   13.1202    2.9528    0.0000 C   0  0  0  0  0  0  0  0  0  0  0  0
   13.1202    4.3528    0.0000 C   0  0  0  0  0  0  0  0  0  0  0  0
   11.9078    5.0528    0.0000 N   0  0  0  0  0  0  0  0  0  0  0  0
   10.6953    4.3528    0.0000 C   0  0  0  0  0  0  0  0  0  0  0  0
   14.3284    5.0504    0.0000 F   0  0  0  0  0  0  0  0  0  0  0  0
  1  2  1  0  0  0  0
  2  3  1  0  0  0  0
  3  4  2  0  0  0  0
  4  5  1  0  0  0  0
  5  6  2  0  0  0  0
  6  1  1  0  0  0  0
  1  7  2  0  0  0  0
  7  8  1  0  0  0  0
  8  9  2  0  0  0  0
  9  2  1  0  0  0  0
  6 10  1  0  0  0  0
 10 11  1  0  0  0  0
  4 12  1  0  0  0  0
 11 13  1  0  0  0  0
 13 14  2  0  0  0  0
 14 15  1  0  0  0  0
 15 16  1  0  0  0  0
 16 11  2  0  0  0  0
 12 17  1  0  0  0  0
 17 18  1  0  0  0  0
 18 19  1  0  0  0  0
 19 20  1  0  0  0  0
 20 12  1  0  0  0  0
 14 21  1  0  0  0  0
 21 22  1  0  0  0  0
 22 23  1  0  0  0  0
 23 21  1  0  0  0  0
 20 24  1  1  0  0  0
 20 25  1  6  0  0  0
 25 26  2  0  0  0  0
 25 27  1  0  0  0  0
 27 28  1  0  0  0  0
 28 29  2  0  0  0  0
 29 30  1  0  0  0  0
 30 31  2  0  0  0  0
 31 32  1  0  0  0  0
 32 33  2  0  0  0  0
 33 28  1  0  0  0  0
 31 34  1  0  0  0  0
M  END
>  <Mol_ID> (184)
806

>  <Formula> (184)
C23H24FN9O

>  <MolWeight> (184)
461.4947632

>  <Cat> (184)
S1124

>  <Name> (184)
BMS-754807

>  <Synonyms> (184)
N/A 

>  <Target> (184)
IGF-1R

>  <Form> (184)
Free Base

>  <CAS> (184)
1001350-96-4

>  <URL> (184)
http://www.selleckchem.com/products/BMS-754807.html

$$$$
TWS119.cdx
csChFnd80/05071909292D

 24 27  0  0  0  0  0  0  0  0999 V2000
    0.0000    6.2976    0.0000 C   0  0  0  0  0  0  0  0  0  0  0  0
    0.0000    4.8976    0.0000 C   0  0  0  0  0  0  0  0  0  0  0  0
    1.2124    4.1976    0.0000 C   0  0  0  0  0  0  0  0  0  0  0  0
    2.4249    4.8976    0.0000 C   0  0  0  0  0  0  0  0  0  0  0  0
    2.4249    6.2976    0.0000 C   0  0  0  0  0  0  0  0  0  0  0  0
    1.2124    6.9976    0.0000 C   0  0  0  0  0  0  0  0  0  0  0  0
    1.2124    8.3927    0.0000 O   0  0  0  0  0  0  0  0  0  0  0  0
    3.6331    4.2000    0.0000 O   0  0  0  0  0  0  0  0  0  0  0  0
    3.6331    2.8000    0.0000 C   0  0  0  0  0  0  0  0  0  0  0  0
    2.4207    2.1000    0.0000 N   0  0  0  0  0  0  0  0  0  0  0  0
    2.4207    0.7000    0.0000 C   0  0  0  0  0  0  0  0  0  0  0  0
    3.6331    0.0000    0.0000 N   0  0  0  0  0  0  0  0  0  0  0  0
    4.8455    0.7000    0.0000 C   0  0  0  0  0  0  0  0  0  0  0  0
    4.8455    2.1000    0.0000 C   0  0  0  0  0  0  0  0  0  0  0  0
    6.1770    0.2674    0.0000 N   0  0  0  0  0  0  0  0  0  0  0  0
    6.9999    1.4000    0.0000 C   0  0  0  0  0  0  0  0  0  0  0  0
    6.1770    2.5326    0.0000 C   0  0  0  0  0  0  0  0  0  0  0  0
    8.3951    1.4000    0.0000 C   0  0  0  0  0  0  0  0  0  0  0  0
    9.0951    0.1876    0.0000 C   0  0  0  0  0  0  0  0  0  0  0  0
   10.4951    0.1876    0.0000 C   0  0  0  0  0  0  0  0  0  0  0  0
   11.1951    1.4000    0.0000 C   0  0  0  0  0  0  0  0  0  0  0  0
   10.4951    2.6124    0.0000 C   0  0  0  0  0  0  0  0  0  0  0  0
    9.0951    2.6124    0.0000 C   0  0  0  0  0  0  0  0  0  0  0  0
   11.1926    3.8207    0.0000 N   0  0  0  0  0  0  0  0  0  0  0  0
  1  2  2  0  0  0  0
  2  3  1  0  0  0  0
  3  4  2  0  0  0  0
  4  5  1  0  0  0  0
  5  6  2  0  0  0  0
  6  1  1  0  0  0  0
  6  7  1  0  0  0  0
  4  8  1  0  0  0  0
  8  9  1  0  0  0  0
  9 10  2  0  0  0  0
 10 11  1  0  0  0  0
 11 12  2  0  0  0  0
 12 13  1  0  0  0  0
 13 14  2  0  0  0  0
 14  9  1  0  0  0  0
 13 15  1  0  0  0  0
 15 16  1  0  0  0  0
 16 17  2  0  0  0  0
 17 14  1  0  0  0  0
 16 18  1  0  0  0  0
 18 19  2  0  0  0  0
 19 20  1  0  0  0  0
 20 21  2  0  0  0  0
 21 22  1  0  0  0  0
 22 23  2  0  0  0  0
 23 18  1  0  0  0  0
 22 24  1  0  0  0  0
M  END
>  <Mol_ID> (185)
809

>  <Formula> (185)
C18H14N4O2

>  <MolWeight> (185)
318.32936

>  <Cat> (185)
S1590

>  <Name> (185)
TWS119

>  <Synonyms> (185)
N/A

>  <Target> (185)
GSK-3

>  <Form> (185)
Free Base

>  <CAS> (185)
601514-19-6

>  <URL> (185)
http://www.selleckchem.com/products/TWS119.html

$$$$
Apatinib.cdx
csChFnd80/05071909292D

 35 37  0  0  0  0  0  0  0  0999 V2000
   10.9104    2.6104    0.0000 S   0  0  0  0  0  0  0  0  0  0  0  0
   10.9104    4.0104    0.0000 O   0  0  0  0  0  0  0  0  0  0  0  0
   12.3104    2.6104    0.0000 O   0  0  0  0  0  0  0  0  0  0  0  0
    9.5104    2.6104    0.0000 C   0  0  0  0  0  0  0  0  0  0  0  0
   10.9104    1.2104    0.0000 O   0  0  0  0  0  0  0  0  0  0  0  0
    0.0000    6.3000    0.0000 C   0  0  0  0  0  0  0  0  0  0  0  0
    0.0000    4.9000    0.0000 C   0  0  0  0  0  0  0  0  0  0  0  0
    1.2124    4.2000    0.0000 N   0  0  0  0  0  0  0  0  0  0  0  0
    2.4249    4.9000    0.0000 C   0  0  0  0  0  0  0  0  0  0  0  0
    2.4249    6.3000    0.0000 C   0  0  0  0  0  0  0  0  0  0  0  0
    1.2124    7.0000    0.0000 C   0  0  0  0  0  0  0  0  0  0  0  0
    3.6373    4.2000    0.0000 N   0  0  0  0  0  0  0  0  0  0  0  0
    4.8497    6.3000    0.0000 N   0  0  0  0  0  0  0  0  0  0  0  0
    3.6373    7.0000    0.0000 C   0  0  0  0  0  0  0  0  0  0  0  0
    3.6373    8.3951    0.0000 O   0  0  0  0  0  0  0  0  0  0  0  0
    6.0622    7.0000    0.0000 C   0  0  0  0  0  0  0  0  0  0  0  0
    7.2746    6.3000    0.0000 C   0  0  0  0  0  0  0  0  0  0  0  0
    8.4870    7.0000    0.0000 C   0  0  0  0  0  0  0  0  0  0  0  0
    8.4870    8.4000    0.0000 C   0  0  0  0  0  0  0  0  0  0  0  0
    7.2746    9.1000    0.0000 C   0  0  0  0  0  0  0  0  0  0  0  0
    6.0622    8.4000    0.0000 C   0  0  0  0  0  0  0  0  0  0  0  0
    9.6995    9.1000    0.0000 C   0  0  0  0  0  0  0  0  0  0  0  0
    3.6373    2.8000    0.0000 C   0  0  0  0  0  0  0  0  0  0  0  0
   10.9784    8.5306    0.0000 C   0  0  0  0  0  0  0  0  0  0  0  0
   11.9152    9.5710    0.0000 C   0  0  0  0  0  0  0  0  0  0  0  0
   11.2152   10.7834    0.0000 C   0  0  0  0  0  0  0  0  0  0  0  0
    9.8458   10.4923    0.0000 C   0  0  0  0  0  0  0  0  0  0  0  0
   10.0618    7.7477    0.0000 C   0  0  0  0  0  0  0  0  0  0  0  0
   10.4242    6.3954    0.0000 N   0  0  0  0  0  0  0  0  0  0  0  0
    4.8497    2.1000    0.0000 C   0  0  0  0  0  0  0  0  0  0  0  0
    4.8497    0.7000    0.0000 C   0  0  0  0  0  0  0  0  0  0  0  0
    6.0622    0.0000    0.0000 C   0  0  0  0  0  0  0  0  0  0  0  0
    7.2746    0.7000    0.0000 N   0  0  0  0  0  0  0  0  0  0  0  0
    7.2746    2.1000    0.0000 C   0  0  0  0  0  0  0  0  0  0  0  0
    6.0622    2.8000    0.0000 C   0  0  0  0  0  0  0  0  0  0  0  0
  1  2  2  0  0  0  0
  1  3  1  0  0  0  0
  1  4  1  0  0  0  0
  1  5  2  0  0  0  0
  6  7  2  0  0  0  0
  7  8  1  0  0  0  0
  8  9  2  0  0  0  0
  9 10  1  0  0  0  0
 10 11  2  0  0  0  0
 11  6  1  0  0  0  0
  9 12  1  0  0  0  0
 13 14  1  0  0  0  0
 14 10  1  0  0  0  0
 14 15  2  0  0  0  0
 13 16  1  0  0  0  0
 16 17  2  0  0  0  0
 17 18  1  0  0  0  0
 18 19  2  0  0  0  0
 19 20  1  0  0  0  0
 20 21  2  0  0  0  0
 21 16  1  0  0  0  0
 19 22  1  0  0  0  0
 12 23  1  0  0  0  0
 22 24  1  0  0  0  0
 24 25  1  0  0  0  0
 25 26  1  0  0  0  0
 26 27  1  0  0  0  0
 27 22  1  0  0  0  0
 22 28  1  0  0  0  0
 28 29  3  0  0  0  0
 23 30  1  0  0  0  0
 30 31  2  0  0  0  0
 31 32  1  0  0  0  0
 32 33  2  0  0  0  0
 33 34  1  0  0  0  0
 34 35  2  0  0  0  0
 35 30  1  0  0  0  0
M  END
>  <Mol_ID> (186)
810

>  <Formula> (186)
C25H27N5O4S

>  <MolWeight> (186)
493.57798

>  <Cat> (186)
S2221

>  <Name> (186)
Apatinib mesylate

>  <Synonyms> (186)
YN968D1

>  <Target> (186)
VEGFR

>  <Form> (186)
mesylate

>  <CAS> (186)
811803-05-1

>  <URL> (186)
http://www.selleckchem.com/products/Apatinib-YN968D1.html

$$$$
untitled.cdx
csChFnd80/05071909292D

 34 38  0  0  0  0  0  0  0  0999 V2000
    3.6331    9.1702    0.0000 C   0  0  0  0  0  0  0  0  0  0  0  0
    3.6331    7.7702    0.0000 C   0  0  0  0  0  0  0  0  0  0  0  0
    4.8455    7.0702    0.0000 C   0  0  0  0  0  0  0  0  0  0  0  0
    6.0580    7.7702    0.0000 C   0  0  0  0  0  0  0  0  0  0  0  0
    6.0580    9.1702    0.0000 C   0  0  0  0  0  0  0  0  0  0  0  0
    4.8455    9.8702    0.0000 C   0  0  0  0  0  0  0  0  0  0  0  0
    7.3894    7.3376    0.0000 N   0  0  0  0  0  0  0  0  0  0  0  0
    8.2123    8.4702    0.0000 C   0  0  0  0  0  0  0  0  0  0  0  0
    7.3894    9.6028    0.0000 N   0  0  0  0  0  0  0  0  0  0  0  0
    2.4249    9.8678    0.0000 N   0  0  0  0  0  0  0  0  0  0  0  0
    2.4249   11.2678    0.0000 C   0  0  0  0  0  0  0  0  0  0  0  0
    1.2124   11.9678    0.0000 C   0  0  0  0  0  0  0  0  0  0  0  0
    0.0000   11.2678    0.0000 O   0  0  0  0  0  0  0  0  0  0  0  0
    0.0000    9.8678    0.0000 C   0  0  0  0  0  0  0  0  0  0  0  0
    1.2124    9.1678    0.0000 C   0  0  0  0  0  0  0  0  0  0  0  0
    4.8455    5.6751    0.0000 C   0  0  0  0  0  0  0  0  0  0  0  0
    9.6075    8.4702    0.0000 C   0  0  0  0  0  0  0  0  0  0  0  0
   10.3075    7.2578    0.0000 C   0  0  0  0  0  0  0  0  0  0  0  0
   11.7075    7.2578    0.0000 C   0  0  0  0  0  0  0  0  0  0  0  0
   12.4075    8.4702    0.0000 C   0  0  0  0  0  0  0  0  0  0  0  0
   10.3075    9.6826    0.0000 C   0  0  0  0  0  0  0  0  0  0  0  0
    9.6099   10.8909    0.0000 O   0  0  0  0  0  0  0  0  0  0  0  0
   11.7075    9.6826    0.0000 N   0  0  0  0  0  0  0  0  0  0  0  0
    9.6099    6.0496    0.0000 N   0  0  0  0  0  0  0  0  0  0  0  0
   10.3075    4.8413    0.0000 C   0  0  0  0  0  0  0  0  0  0  0  0
    9.6099    3.6331    0.0000 C   0  0  2  0  0  0  0  0  0  0  0  0
   10.3075    2.4249    0.0000 C   0  0  0  0  0  0  0  0  0  0  0  0
    9.6075    1.2124    0.0000 C   0  0  0  0  0  0  0  0  0  0  0  0
   10.3075    0.0000    0.0000 C   0  0  0  0  0  0  0  0  0  0  0  0
   11.7075    0.0000    0.0000 C   0  0  0  0  0  0  0  0  0  0  0  0
   12.4075    1.2124    0.0000 C   0  0  0  0  0  0  0  0  0  0  0  0
   11.7075    2.4249    0.0000 C   0  0  0  0  0  0  0  0  0  0  0  0
   13.8026    1.2124    0.0000 Cl  0  0  0  0  0  0  0  0  0  0  0  0
    8.2148    3.6331    0.0000 O   0  0  0  0  0  0  0  0  0  0  0  0
  1  2  2  0  0  0  0
  2  3  1  0  0  0  0
  3  4  2  0  0  0  0
  4  5  1  0  0  0  0
  5  6  2  0  0  0  0
  6  1  1  0  0  0  0
  4  7  1  0  0  0  0
  7  8  2  0  0  0  0
  8  9  1  0  0  0  0
  9  5  1  0  0  0  0
  1 10  1  0  0  0  0
 10 11  1  0  0  0  0
 11 12  1  0  0  0  0
 12 13  1  0  0  0  0
 13 14  1  0  0  0  0
 14 15  1  0  0  0  0
 15 10  1  0  0  0  0
  3 16  1  0  0  0  0
  8 17  1  0  0  0  0
 17 18  2  0  0  0  0
 18 19  1  0  0  0  0
 19 20  2  0  0  0  0
 21 17  1  0  0  0  0
 21 22  2  0  0  0  0
 21 23  1  0  0  0  0
 23 20  1  0  0  0  0
 18 24  1  0  0  0  0
 24 25  1  0  0  0  0
 25 26  1  0  0  0  0
 26 27  1  0  0  0  0
 27 28  2  0  0  0  0
 28 29  1  0  0  0  0
 29 30  2  0  0  0  0
 30 31  1  0  0  0  0
 31 32  2  0  0  0  0
 32 27  1  0  0  0  0
 31 33  1  0  0  0  0
 26 34  1  6  0  0  0
M  END
>  <Mol_ID> (187)
811

>  <Formula> (187)
C25H26ClN5O3

>  <MolWeight> (187)
479.95864

>  <Cat> (187)
S1012

>  <Name> (187)
BMS-536924

>  <Synonyms> (187)
N/A 

>  <Target> (187)
IGF-1R

>  <Form> (187)
Free Base

>  <CAS> (187)
468740-43-4

>  <URL> (187)
http://www.selleckchem.com/products/BMS-536924.html

$$$$
937174-76-0.cdx
csChFnd80/05071909292D

 31 34  0  0  0  0  0  0  0  0999 V2000
    5.7039    4.1951    0.0000 C   0  0  0  0  0  0  0  0  0  0  0  0
    5.7039    2.7951    0.0000 C   0  0  0  0  0  0  0  0  0  0  0  0
    6.9163    2.0951    0.0000 C   0  0  0  0  0  0  0  0  0  0  0  0
    8.1288    2.7951    0.0000 C   0  0  0  0  0  0  0  0  0  0  0  0
    8.1288    4.1951    0.0000 N   0  0  0  0  0  0  0  0  0  0  0  0
    6.9163    4.8951    0.0000 C   0  0  0  0  0  0  0  0  0  0  0  0
    4.3724    4.6278    0.0000 N   0  0  0  0  0  0  0  0  0  0  0  0
    3.5495    3.4951    0.0000 C   0  0  0  0  0  0  0  0  0  0  0  0
    4.3724    2.3625    0.0000 N   0  0  0  0  0  0  0  0  0  0  0  0
    6.9163    6.2903    0.0000 C   0  0  0  0  0  0  0  0  0  0  0  0
    6.9163    7.6854    0.0000 C   0  0  0  0  0  0  0  0  0  0  0  0
    6.9163    9.0806    0.0000 C   0  0  0  0  0  0  0  0  0  0  0  0
    5.7081    9.7781    0.0000 C   0  0  0  0  0  0  0  0  0  0  0  0
    8.1246    9.7781    0.0000 O   0  0  0  0  0  0  0  0  0  0  0  0
    6.9163   10.4757    0.0000 C   0  0  0  0  0  0  0  0  0  0  0  0
    6.9163    0.7000    0.0000 O   0  0  0  0  0  0  0  0  0  0  0  0
    8.1246    0.0024    0.0000 C   0  0  0  0  0  0  0  0  0  0  0  0
    9.3328    0.7000    0.0000 C   0  0  2  0  0  0  0  0  0  0  0  0
   10.5452    0.0000    0.0000 C   0  0  0  0  0  0  0  0  0  0  0  0
   11.7577    0.7000    0.0000 N   0  0  0  0  0  0  0  0  0  0  0  0
   11.7577    2.1000    0.0000 C   0  0  0  0  0  0  0  0  0  0  0  0
   10.5452    2.8000    0.0000 C   0  0  0  0  0  0  0  0  0  0  0  0
    9.3328    2.1000    0.0000 C   0  0  0  0  0  0  0  0  0  0  0  0
    3.9413    1.0357    0.0000 C   0  0  0  0  0  0  0  0  0  0  0  0
    2.5766    0.7456    0.0000 C   0  0  0  0  0  0  0  0  0  0  0  0
    2.1544    3.4951    0.0000 C   0  0  0  0  0  0  0  0  0  0  0  0
    1.3315    4.6278    0.0000 C   0  0  0  0  0  0  0  0  0  0  0  0
    0.0000    4.1951    0.0000 N   0  0  0  0  0  0  0  0  0  0  0  0
    0.0000    2.7951    0.0000 O   0  0  0  0  0  0  0  0  0  0  0  0
    1.3315    2.3625    0.0000 N   0  0  0  0  0  0  0  0  0  0  0  0
    1.7626    5.9546    0.0000 N   0  0  0  0  0  0  0  0  0  0  0  0
  1  2  2  0  0  0  0
  2  3  1  0  0  0  0
  3  4  2  0  0  0  0
  4  5  1  0  0  0  0
  5  6  2  0  0  0  0
  6  1  1  0  0  0  0
  1  7  1  0  0  0  0
  7  8  2  0  0  0  0
  8  9  1  0  0  0  0
  9  2  1  0  0  0  0
  6 10  1  0  0  0  0
 10 11  3  0  0  0  0
 11 12  1  0  0  0  0
 12 13  1  0  0  0  0
 12 14  1  0  0  0  0
 12 15  1  0  0  0  0
  3 16  1  0  0  0  0
 16 17  1  0  0  0  0
 18 19  1  0  0  0  0
 19 20  1  0  0  0  0
 20 21  1  0  0  0  0
 21 22  1  0  0  0  0
 22 23  1  0  0  0  0
 23 18  1  0  0  0  0
 18 17  1  1  0  0  0
  9 24  1  0  0  0  0
 24 25  1  0  0  0  0
  8 26  1  0  0  0  0
 26 27  1  0  0  0  0
 27 28  2  0  0  0  0
 28 29  1  0  0  0  0
 29 30  1  0  0  0  0
 30 26  2  0  0  0  0
 27 31  1  0  0  0  0
M  END
>  <Mol_ID> (188)
812

>  <Formula> (188)
C21H27N7O3

>  <MolWeight> (188)
425.48418

>  <Cat> (188)
S1113

>  <Name> (188)
GSK690693

>  <Synonyms> (188)
N/A

>  <Target> (188)
Akt

>  <Form> (188)
Free Base

>  <CAS> (188)
937174-76-0

>  <URL> (188)
http://www.selleckchem.com/products/GSK690693.html

$$$$
LY2603618.cdx
csChFnd80/05071909292D

 27 29  0  0  0  0  0  0  0  0999 V2000
    1.2082    3.4951    0.0000 C   0  0  0  0  0  0  0  0  0  0  0  0
    1.2082    2.0951    0.0000 C   0  0  0  0  0  0  0  0  0  0  0  0
    2.4207    1.3951    0.0000 C   0  0  0  0  0  0  0  0  0  0  0  0
    3.6331    2.0951    0.0000 C   0  0  0  0  0  0  0  0  0  0  0  0
    3.6331    3.4951    0.0000 C   0  0  0  0  0  0  0  0  0  0  0  0
    2.4207    4.1951    0.0000 C   0  0  0  0  0  0  0  0  0  0  0  0
    0.0000    1.3976    0.0000 C   0  0  0  0  0  0  0  0  0  0  0  0
    2.4207    0.0000    0.0000 Br  0  0  0  0  0  0  0  0  0  0  0  0
    2.4207    5.5903    0.0000 O   0  0  0  0  0  0  0  0  0  0  0  0
    1.2124    6.2879    0.0000 C   0  0  0  0  0  0  0  0  0  0  0  0
    1.2124    7.6879    0.0000 C   0  0  2  0  0  0  0  0  0  0  0  0
    2.4249    8.3879    0.0000 C   0  0  0  0  0  0  0  0  0  0  0  0
    2.4249    9.7879    0.0000 N   0  0  0  0  0  0  0  0  0  0  0  0
    1.2124   10.4879    0.0000 C   0  0  0  0  0  0  0  0  0  0  0  0
    0.0000    9.7879    0.0000 C   0  0  0  0  0  0  0  0  0  0  0  0
    0.0000    8.3879    0.0000 O   0  0  0  0  0  0  0  0  0  0  0  0
    4.8413    4.1927    0.0000 N   0  0  0  0  0  0  0  0  0  0  0  0
    6.0496    3.4951    0.0000 C   0  0  0  0  0  0  0  0  0  0  0  0
    7.2578    4.1927    0.0000 N   0  0  0  0  0  0  0  0  0  0  0  0
    8.4660    3.4951    0.0000 C   0  0  0  0  0  0  0  0  0  0  0  0
    6.0496    2.1000    0.0000 O   0  0  0  0  0  0  0  0  0  0  0  0
    8.4660    2.0951    0.0000 C   0  0  0  0  0  0  0  0  0  0  0  0
    9.6784    1.3951    0.0000 N   0  0  0  0  0  0  0  0  0  0  0  0
   10.8909    2.0951    0.0000 C   0  0  0  0  0  0  0  0  0  0  0  0
   10.8909    3.4951    0.0000 C   0  0  0  0  0  0  0  0  0  0  0  0
    9.6784    4.1951    0.0000 N   0  0  0  0  0  0  0  0  0  0  0  0
   12.0991    1.3976    0.0000 C   0  0  0  0  0  0  0  0  0  0  0  0
  1  2  2  0  0  0  0
  2  3  1  0  0  0  0
  3  4  2  0  0  0  0
  4  5  1  0  0  0  0
  5  6  2  0  0  0  0
  6  1  1  0  0  0  0
  2  7  1  0  0  0  0
  3  8  1  0  0  0  0
  6  9  1  0  0  0  0
  9 10  1  0  0  0  0
 11 10  1  1  0  0  0
 11 12  1  0  0  0  0
 12 13  1  0  0  0  0
 13 14  1  0  0  0  0
 14 15  1  0  0  0  0
 15 16  1  0  0  0  0
 16 11  1  0  0  0  0
  5 17  1  0  0  0  0
 17 18  1  0  0  0  0
 18 19  1  0  0  0  0
 19 20  1  0  0  0  0
 18 21  2  0  0  0  0
 20 22  2  0  0  0  0
 22 23  1  0  0  0  0
 23 24  2  0  0  0  0
 24 25  1  0  0  0  0
 25 26  2  0  0  0  0
 26 20  1  0  0  0  0
 24 27  1  0  0  0  0
M  END
>  <Mol_ID> (189)
817

>  <Formula> (189)
C18H22BrN5O3

>  <MolWeight> (189)
436.30298

>  <Cat> (189)
S2626

>  <Name> (189)
LY2603618 (IC-83)

>  <Synonyms> (189)
N/A 

>  <Target> (189)
Chk

>  <Form> (189)
Free Base

>  <CAS> (189)
911222-45-2

>  <URL> (189)
http://www.selleckchem.com/products/LY2603618-IC-83.html

$$$$
GSK1120212.cdx
csChFnd80/05071909292D

 37 41  0  0  0  0  0  0  0  0999 V2000
    3.6289    6.2927    0.0000 C   0  0  0  0  0  0  0  0  0  0  0  0
    3.6289    4.8927    0.0000 N   0  0  0  0  0  0  0  0  0  0  0  0
    4.8413    4.1927    0.0000 C   0  0  0  0  0  0  0  0  0  0  0  0
    6.0538    4.8927    0.0000 C   0  0  0  0  0  0  0  0  0  0  0  0
    6.0538    6.2927    0.0000 C   0  0  0  0  0  0  0  0  0  0  0  0
    4.8413    6.9927    0.0000 C   0  0  0  0  0  0  0  0  0  0  0  0
    2.4207    6.9903    0.0000 O   0  0  0  0  0  0  0  0  0  0  0  0
    2.4207    4.1951    0.0000 C   0  0  0  0  0  0  0  0  0  0  0  0
    4.8413    8.3879    0.0000 C   0  0  0  0  0  0  0  0  0  0  0  0
    7.2662    4.1927    0.0000 C   0  0  0  0  0  0  0  0  0  0  0  0
    8.4786    4.8927    0.0000 N   0  0  0  0  0  0  0  0  0  0  0  0
    8.4786    6.2927    0.0000 C   0  0  0  0  0  0  0  0  0  0  0  0
    7.2662    6.9927    0.0000 N   0  0  0  0  0  0  0  0  0  0  0  0
    7.2662    8.3879    0.0000 C   0  0  0  0  0  0  0  0  0  0  0  0
    9.6869    6.9903    0.0000 O   0  0  0  0  0  0  0  0  0  0  0  0
    9.6869    4.1951    0.0000 C   0  0  0  0  0  0  0  0  0  0  0  0
   10.3869    2.9827    0.0000 C   0  0  0  0  0  0  0  0  0  0  0  0
   11.0869    4.1951    0.0000 C   0  0  0  0  0  0  0  0  0  0  0  0
    7.2662    2.7976    0.0000 O   0  0  0  0  0  0  0  0  0  0  0  0
    4.8413    2.7976    0.0000 N   0  0  0  0  0  0  0  0  0  0  0  0
    3.6331    2.1000    0.0000 C   0  0  0  0  0  0  0  0  0  0  0  0
    2.4207    2.8000    0.0000 C   0  0  0  0  0  0  0  0  0  0  0  0
    1.2082    2.1000    0.0000 C   0  0  0  0  0  0  0  0  0  0  0  0
    1.2082    0.7000    0.0000 C   0  0  0  0  0  0  0  0  0  0  0  0
    2.4207    0.0000    0.0000 C   0  0  0  0  0  0  0  0  0  0  0  0
    3.6331    0.7000    0.0000 C   0  0  0  0  0  0  0  0  0  0  0  0
    0.0000    0.0024    0.0000 I   0  0  0  0  0  0  0  0  0  0  0  0
    4.8413    0.0024    0.0000 F   0  0  0  0  0  0  0  0  0  0  0  0
    8.4786    9.0879    0.0000 C   0  0  0  0  0  0  0  0  0  0  0  0
    8.4786   10.4879    0.0000 C   0  0  0  0  0  0  0  0  0  0  0  0
    7.2662   11.1879    0.0000 C   0  0  0  0  0  0  0  0  0  0  0  0
    6.0538   10.4879    0.0000 C   0  0  0  0  0  0  0  0  0  0  0  0
    6.0538    9.0879    0.0000 C   0  0  0  0  0  0  0  0  0  0  0  0
    9.6869   11.1854    0.0000 N   0  0  0  0  0  0  0  0  0  0  0  0
   10.8951   10.4879    0.0000 C   0  0  0  0  0  0  0  0  0  0  0  0
   12.1033   11.1854    0.0000 C   0  0  0  0  0  0  0  0  0  0  0  0
   10.8951    9.0927    0.0000 O   0  0  0  0  0  0  0  0  0  0  0  0
  1  2  1  0  0  0  0
  2  3  1  0  0  0  0
  3  4  2  0  0  0  0
  4  5  1  0  0  0  0
  5  6  2  0  0  0  0
  6  1  1  0  0  0  0
  1  7  2  0  0  0  0
  2  8  1  0  0  0  0
  6  9  1  0  0  0  0
  4 10  1  0  0  0  0
 10 11  1  0  0  0  0
 11 12  1  0  0  0  0
 12 13  1  0  0  0  0
 13  5  1  0  0  0  0
 13 14  1  0  0  0  0
 12 15  2  0  0  0  0
 11 16  1  0  0  0  0
 16 17  1  0  0  0  0
 17 18  1  0  0  0  0
 18 16  1  0  0  0  0
 10 19  2  0  0  0  0
  3 20  1  0  0  0  0
 20 21  1  0  0  0  0
 21 22  2  0  0  0  0
 22 23  1  0  0  0  0
 23 24  2  0  0  0  0
 24 25  1  0  0  0  0
 25 26  2  0  0  0  0
 26 21  1  0  0  0  0
 24 27  1  0  0  0  0
 26 28  1  0  0  0  0
 14 29  2  0  0  0  0
 29 30  1  0  0  0  0
 30 31  2  0  0  0  0
 31 32  1  0  0  0  0
 32 33  2  0  0  0  0
 33 14  1  0  0  0  0
 30 34  1  0  0  0  0
 34 35  1  0  0  0  0
 35 36  1  0  0  0  0
 35 37  2  0  0  0  0
M  END
>  <Mol_ID> (190)
821

>  <Formula> (190)
C26H23FIN5O4

>  <MolWeight> (190)
615.3947932

>  <Cat> (190)
S2673

>  <Name> (190)
GSK1120212 (Trametinib)

>  <Synonyms> (190)
GSK212 

>  <Target> (190)
MEK 

>  <Form> (190)
Free Base

>  <CAS> (190)
871700-17-3

>  <URL> (190)
http://www.selleckchem.com/products/gsk1120212-(jtp-74057).html

$$$$
PHA-665752.cdx
csChFnd80/05071909342D

 62 67  0  0  0  0  0  0  0  0999 V2000
   23.0984    4.8696    0.0000 C   0  0  0  0  0  0  0  0  0  0  0  0
   23.7998    3.6548    0.0000 C   0  0  0  0  0  0  0  0  0  0  0  0
   23.7970    6.0795    0.0000 C   0  0  0  0  0  0  0  0  0  0  0  0
   21.6902    4.8696    0.0000 C   0  0  0  0  0  0  0  0  0  0  0  0
   25.2098    3.6548    0.0000 C   0  0  0  0  0  0  0  0  0  0  0  0
   23.0999    2.4424    0.0000 C   0  0  0  0  0  0  0  0  0  0  0  0
   25.1900    6.0795    0.0000 C   0  0  0  0  0  0  0  0  0  0  0  0
   23.0930    7.2988    0.0000 N   0  0  0  0  0  0  0  0  0  0  0  0
   20.9840    3.6465    0.0000 C   0  0  0  0  0  0  0  0  0  0  0  0
   20.9913    6.0801    0.0000 O   0  0  0  0  0  0  0  0  0  0  0  0
   25.9168    4.8794    0.0000 C   0  0  0  0  0  0  0  0  0  0  0  0
   25.9030    2.4540    0.0000 S   0  0  0  0  0  0  0  0  0  0  0  0
   21.7031    2.4424    0.0000 C   0  0  0  0  0  0  0  0  0  0  0  0
   25.8968    7.3036    0.0000 S   0  0  0  0  0  0  0  0  0  0  0  0
   19.5951    3.6465    0.0000 N   0  0  0  0  0  0  0  0  0  0  0  0
   27.1241    3.1589    0.0000 O   0  0  0  0  0  0  0  0  0  0  0  0
   24.6994    1.7591    0.0000 O   0  0  0  0  0  0  0  0  0  0  0  0
   26.6030    1.2417    0.0000 O   0  0  0  0  0  0  0  0  0  0  0  0
   28.0030    1.2417    0.0000 Na  0  0  0  0  0  0  0  0  0  0  0  0
   27.1008    6.6085    0.0000 O   0  0  0  0  0  0  0  0  0  0  0  0
   24.6761    8.0084    0.0000 O   0  0  0  0  0  0  0  0  0  0  0  0
   26.5967    8.5160    0.0000 O   0  0  0  0  0  0  0  0  0  0  0  0
   27.9967    8.5160    0.0000 Na  0  0  0  0  0  0  0  0  0  0  0  0
   18.8934    2.4312    0.0000 N   0  0  0  0  0  0  0  0  0  0  0  0
   17.4952    2.4312    0.0000 C   0  0  0  0  0  0  0  0  0  0  0  0
   16.7918    1.2128    0.0000 C   0  0  0  0  0  0  0  0  0  0  0  0
   16.7938    3.6462    0.0000 C   0  0  0  0  0  0  0  0  0  0  0  0
   15.3884    1.2128    0.0000 C   0  0  0  0  0  0  0  0  0  0  0  0
   17.4920    0.0000    0.0000 C   0  0  0  0  0  0  0  0  0  0  0  0
   15.3903    3.6462    0.0000 C   0  0  0  0  0  0  0  0  0  0  0  0
   14.6857    2.4301    0.0000 C   0  0  0  0  0  0  0  0  0  0  0  0
   13.2881    2.4301    0.0000 C   0  0  0  0  0  0  0  0  0  0  0  0
   12.5881    1.2176    0.0000 C   0  0  0  0  0  0  0  0  0  0  0  0
   12.5842    3.6492    0.0000 C   0  0  0  0  0  0  0  0  0  0  0  0
   11.1821    1.2176    0.0000 C   0  0  0  0  0  0  0  0  0  0  0  0
   11.1808    3.6492    0.0000 C   0  0  0  0  0  0  0  0  0  0  0  0
   10.4776    2.4378    0.0000 C   0  0  0  0  0  0  0  0  0  0  0  0
   10.4840    0.0084    0.0000 C   0  0  0  0  0  0  0  0  0  0  0  0
    9.0776    2.4378    0.0000 N   0  0  0  0  0  0  0  0  0  0  0  0
    8.3778    3.6500    0.0000 N   0  0  0  0  0  0  0  0  0  0  0  0
    6.9778    3.6500    0.0000 C   0  0  0  0  0  0  0  0  0  0  0  0
    6.2808    4.8571    0.0000 C   0  0  0  0  0  0  0  0  0  0  0  0
    6.2796    2.4407    0.0000 C   0  0  0  0  0  0  0  0  0  0  0  0
    4.8906    4.8571    0.0000 C   0  0  0  0  0  0  0  0  0  0  0  0
    6.9813    6.0705    0.0000 O   0  0  0  0  0  0  0  0  0  0  0  0
    4.8925    2.4407    0.0000 C   0  0  0  0  0  0  0  0  0  0  0  0
    4.1892    3.6423    0.0000 C   0  0  0  0  0  0  0  0  0  0  0  0
    4.2015    6.0507    0.0000 C   0  0  0  0  0  0  0  0  0  0  0  0
    2.8044    3.6423    0.0000 C   0  0  0  0  0  0  0  0  0  0  0  0
    2.8070    6.0507    0.0000 C   0  0  0  0  0  0  0  0  0  0  0  0
    4.9015    7.2631    0.0000 N   0  0  0  0  0  0  0  0  0  0  0  0
    2.1104    4.8444    0.0000 C   0  0  0  0  0  0  0  0  0  0  0  0
    2.0999    2.4222    0.0000 S   0  0  0  0  0  0  0  0  0  0  0  0
    2.1066    7.2639    0.0000 S   0  0  0  0  0  0  0  0  0  0  0  0
    0.8891    3.1213    0.0000 O   0  0  0  0  0  0  0  0  0  0  0  0
    3.3137    1.7214    0.0000 O   0  0  0  0  0  0  0  0  0  0  0  0
    1.4000    1.2099    0.0000 O   0  0  0  0  0  0  0  0  0  0  0  0
    0.0000    1.2099    0.0000 Na  0  0  0  0  0  0  0  0  0  0  0  0
    0.9015    6.5681    0.0000 O   0  0  0  0  0  0  0  0  0  0  0  0
    3.3262    7.9680    0.0000 O   0  0  0  0  0  0  0  0  0  0  0  0
    1.4066    8.4762    0.0000 O   0  0  0  0  0  0  0  0  0  0  0  0
    0.0066    8.4762    0.0000 Na  0  0  0  0  0  0  0  0  0  0  0  0
  1  2  1  0  0  0  0
  1  3  2  0  0  0  0
  1  4  1  0  0  0  0
  2  5  2  0  0  0  0
  2  6  1  0  0  0  0
  3  7  1  0  0  0  0
  3  8  1  0  0  0  0
  4  9  2  0  0  0  0
  4 10  1  0  0  0  0
  5 11  1  0  0  0  0
  5 12  1  0  0  0  0
  6 13  2  0  0  0  0
  7 14  1  0  0  0  0
  7 11  2  0  0  0  0
  9 15  1  0  0  0  0
  9 13  1  0  0  0  0
 12 16  2  0  0  0  0
 12 17  2  0  0  0  0
 12 18  1  0  0  0  0
 14 20  2  0  0  0  0
 14 21  2  0  0  0  0
 14 22  1  0  0  0  0
 15 24  2  0  0  0  0
 24 25  1  0  0  0  0
 25 26  2  0  0  0  0
 25 27  1  0  0  0  0
 26 28  1  0  0  0  0
 26 29  1  0  0  0  0
 27 30  2  0  0  0  0
 28 31  2  0  0  0  0
 30 31  1  0  0  0  0
 31 32  1  0  0  0  0
 32 33  2  0  0  0  0
 32 34  1  0  0  0  0
 33 35  1  0  0  0  0
 34 36  2  0  0  0  0
 35 37  2  0  0  0  0
 35 38  1  0  0  0  0
 36 37  1  0  0  0  0
 37 39  1  0  0  0  0
 39 40  2  0  0  0  0
 40 41  1  0  0  0  0
 41 42  2  0  0  0  0
 41 43  1  0  0  0  0
 42 44  1  0  0  0  0
 42 45  1  0  0  0  0
 43 46  2  0  0  0  0
 44 47  1  0  0  0  0
 44 48  2  0  0  0  0
 46 47  1  0  0  0  0
 47 49  2  0  0  0  0
 48 50  1  0  0  0  0
 48 51  1  0  0  0  0
 49 52  1  0  0  0  0
 49 53  1  0  0  0  0
 50 54  1  0  0  0  0
 50 52  2  0  0  0  0
 53 55  2  0  0  0  0
 53 56  2  0  0  0  0
 53 57  1  0  0  0  0
 54 59  2  0  0  0  0
 54 60  2  0  0  0  0
 54 61  1  0  0  0  0
 18 19  1  0  0  0  0
 22 23  1  0  0  0  0
 57 58  1  0  0  0  0
 61 62  1  0  0  0  0
M  END
>  <Mol_ID> (191)
1702

>  <Formula> (191)
C34H24N6Na4O14S4

>  <MolWeight> (191)
960.80524

>  <Cat> (191)
S4716

>  <Name> (191)
PHA-665752

>  <Synonyms> (191)
N/A 

>  <Target> (191)
c-Met

>  <Form> (191)
Free Base

>  <CAS> (191)
477575-56-7

>  <URL> (191)
http://www.selleckchem.com/products/PHA-665752.html

$$$$
KX2-391.cdx
csChFnd80/05071909292D

 32 35  0  0  0  0  0  0  0  0999 V2000
    7.2746    2.1000    0.0000 C   0  0  0  0  0  0  0  0  0  0  0  0
    7.2746    0.7000    0.0000 C   0  0  0  0  0  0  0  0  0  0  0  0
    8.4870    0.0000    0.0000 C   0  0  0  0  0  0  0  0  0  0  0  0
    9.6995    0.7000    0.0000 C   0  0  0  0  0  0  0  0  0  0  0  0
    9.6995    2.1000    0.0000 C   0  0  0  0  0  0  0  0  0  0  0  0
    8.4870    2.8000    0.0000 C   0  0  0  0  0  0  0  0  0  0  0  0
   10.9119    2.8000    0.0000 C   0  0  0  0  0  0  0  0  0  0  0  0
   12.1244    2.1000    0.0000 C   0  0  0  0  0  0  0  0  0  0  0  0
   13.3368    2.8000    0.0000 C   0  0  0  0  0  0  0  0  0  0  0  0
   13.3368    4.2000    0.0000 C   0  0  0  0  0  0  0  0  0  0  0  0
   12.1244    4.9000    0.0000 N   0  0  0  0  0  0  0  0  0  0  0  0
   10.9119    4.2000    0.0000 C   0  0  0  0  0  0  0  0  0  0  0  0
   14.5492    4.9000    0.0000 C   0  0  0  0  0  0  0  0  0  0  0  0
   14.5492    6.3000    0.0000 C   0  0  0  0  0  0  0  0  0  0  0  0
   13.3368    7.0000    0.0000 N   0  0  0  0  0  0  0  0  0  0  0  0
   13.3368    8.4000    0.0000 C   0  0  0  0  0  0  0  0  0  0  0  0
   12.1244    9.1000    0.0000 C   0  0  0  0  0  0  0  0  0  0  0  0
   12.1244   10.5000    0.0000 C   0  0  0  0  0  0  0  0  0  0  0  0
   10.9119   11.2000    0.0000 C   0  0  0  0  0  0  0  0  0  0  0  0
    9.6995   10.5000    0.0000 C   0  0  0  0  0  0  0  0  0  0  0  0
    9.6995    9.1000    0.0000 C   0  0  0  0  0  0  0  0  0  0  0  0
   10.9119    8.4000    0.0000 C   0  0  0  0  0  0  0  0  0  0  0  0
    6.0622    0.0000    0.0000 O   0  0  0  0  0  0  0  0  0  0  0  0
    4.8497    0.7000    0.0000 C   0  0  0  0  0  0  0  0  0  0  0  0
    3.6373    0.0000    0.0000 C   0  0  0  0  0  0  0  0  0  0  0  0
    2.4249    0.7000    0.0000 N   0  0  0  0  0  0  0  0  0  0  0  0
    2.4249    2.1000    0.0000 C   0  0  0  0  0  0  0  0  0  0  0  0
    1.2124    2.8000    0.0000 C   0  0  0  0  0  0  0  0  0  0  0  0
    0.0000    2.1000    0.0000 O   0  0  0  0  0  0  0  0  0  0  0  0
    0.0000    0.7000    0.0000 C   0  0  0  0  0  0  0  0  0  0  0  0
    1.2124    0.0000    0.0000 C   0  0  0  0  0  0  0  0  0  0  0  0
   15.7617    7.0000    0.0000 O   0  0  0  0  0  0  0  0  0  0  0  0
  1  2  2  0  0  0  0
  2  3  1  0  0  0  0
  3  4  2  0  0  0  0
  4  5  1  0  0  0  0
  5  6  2  0  0  0  0
  6  1  1  0  0  0  0
  5  7  1  0  0  0  0
  7  8  2  0  0  0  0
  8  9  1  0  0  0  0
  9 10  2  0  0  0  0
 10 11  1  0  0  0  0
 11 12  2  0  0  0  0
 12  7  1  0  0  0  0
 10 13  1  0  0  0  0
 13 14  1  0  0  0  0
 14 15  1  0  0  0  0
 15 16  1  0  0  0  0
 16 17  1  0  0  0  0
 17 18  2  0  0  0  0
 18 19  1  0  0  0  0
 19 20  2  0  0  0  0
 20 21  1  0  0  0  0
 21 22  2  0  0  0  0
 22 17  1  0  0  0  0
  2 23  1  0  0  0  0
 23 24  1  0  0  0  0
 24 25  1  0  0  0  0
 25 26  1  0  0  0  0
 26 27  1  0  0  0  0
 27 28  1  0  0  0  0
 28 29  1  0  0  0  0
 29 30  1  0  0  0  0
 30 31  1  0  0  0  0
 31 26  1  0  0  0  0
 14 32  2  0  0  0  0
M  END
>  <Mol_ID> (192)
833

>  <Formula> (192)
C26H29N3O3

>  <MolWeight> (192)
431.52676

>  <Cat> (192)
S2700

>  <Name> (192)
KX2-391

>  <Synonyms> (192)
N/A

>  <Target> (192)
Src

>  <Form> (192)
Free Base

>  <CAS> (192)
897016-82-9

>  <URL> (192)
http://www.selleckchem.com/products/kx2-391.html

$$$$
GSK1838705A.cdx
csChFnd80/05071909292D

 39 43  0  0  0  0  0  0  0  0999 V2000
    3.6289    8.0278    0.0000 N   0  0  0  0  0  0  0  0  0  0  0  0
    3.6289    6.6278    0.0000 C   0  0  0  0  0  0  0  0  0  0  0  0
    4.8413    5.9278    0.0000 N   0  0  0  0  0  0  0  0  0  0  0  0
    6.0538    6.6278    0.0000 C   0  0  0  0  0  0  0  0  0  0  0  0
    6.0538    8.0278    0.0000 C   0  0  0  0  0  0  0  0  0  0  0  0
    4.8413    8.7278    0.0000 C   0  0  0  0  0  0  0  0  0  0  0  0
    4.8413   10.1229    0.0000 N   0  0  0  0  0  0  0  0  0  0  0  0
    4.8413   11.5229    0.0000 C   0  0  0  0  0  0  0  0  0  0  0  0
    6.0538   12.2229    0.0000 C   0  0  0  0  0  0  0  0  0  0  0  0
    6.0538   13.6229    0.0000 C   0  0  0  0  0  0  0  0  0  0  0  0
    4.8413   14.3229    0.0000 C   0  0  0  0  0  0  0  0  0  0  0  0
    3.6289   13.6229    0.0000 C   0  0  0  0  0  0  0  0  0  0  0  0
    3.6289   12.2229    0.0000 C   0  0  0  0  0  0  0  0  0  0  0  0
    2.4207   11.5254    0.0000 C   0  0  0  0  0  0  0  0  0  0  0  0
    1.2124   12.2229    0.0000 O   0  0  0  0  0  0  0  0  0  0  0  0
    2.4207   10.1302    0.0000 N   0  0  0  0  0  0  0  0  0  0  0  0
    1.2124    9.4327    0.0000 C   0  0  0  0  0  0  0  0  0  0  0  0
    2.4207   14.3205    0.0000 F   0  0  0  0  0  0  0  0  0  0  0  0
    2.4207    5.9302    0.0000 N   0  0  0  0  0  0  0  0  0  0  0  0
    2.4207    4.5302    0.0000 C   0  0  0  0  0  0  0  0  0  0  0  0
    1.2082    3.8302    0.0000 C   0  0  0  0  0  0  0  0  0  0  0  0
    1.2082    2.4302    0.0000 C   0  0  0  0  0  0  0  0  0  0  0  0
    2.4207    1.7302    0.0000 C   0  0  0  0  0  0  0  0  0  0  0  0
    3.6331    2.4302    0.0000 C   0  0  0  0  0  0  0  0  0  0  0  0
    3.6331    3.8302    0.0000 C   0  0  0  0  0  0  0  0  0  0  0  0
    2.7117    0.3608    0.0000 C   0  0  0  0  0  0  0  0  0  0  0  0
    4.1041    0.2145    0.0000 C   0  0  0  0  0  0  0  0  0  0  0  0
    4.6735    1.4935    0.0000 N   0  0  0  0  0  0  0  0  0  0  0  0
    7.3852    6.1952    0.0000 N   0  0  0  0  0  0  0  0  0  0  0  0
    8.2081    7.3278    0.0000 C   0  0  0  0  0  0  0  0  0  0  0  0
    7.3852    8.4604    0.0000 C   0  0  0  0  0  0  0  0  0  0  0  0
    0.0000    4.5278    0.0000 O   0  0  0  0  0  0  0  0  0  0  0  0
    0.0000    5.9278    0.0000 C   0  0  0  0  0  0  0  0  0  0  0  0
    6.0382    1.7835    0.0000 C   0  0  0  0  0  0  0  0  0  0  0  0
    6.4693    3.1104    0.0000 O   0  0  0  0  0  0  0  0  0  0  0  0
    6.9717    0.7467    0.0000 C   0  0  0  0  0  0  0  0  0  0  0  0
    8.3363    1.0368    0.0000 N   0  0  0  0  0  0  0  0  0  0  0  0
    8.7675    2.3636    0.0000 C   0  0  0  0  0  0  0  0  0  0  0  0
    9.2699    0.0000    0.0000 C   0  0  0  0  0  0  0  0  0  0  0  0
  1  2  2  0  0  0  0
  2  3  1  0  0  0  0
  3  4  2  0  0  0  0
  4  5  1  0  0  0  0
  5  6  2  0  0  0  0
  6  1  1  0  0  0  0
  6  7  1  0  0  0  0
  7  8  1  0  0  0  0
  8  9  2  0  0  0  0
  9 10  1  0  0  0  0
 10 11  2  0  0  0  0
 11 12  1  0  0  0  0
 12 13  2  0  0  0  0
 13  8  1  0  0  0  0
 13 14  1  0  0  0  0
 14 15  2  0  0  0  0
 14 16  1  0  0  0  0
 16 17  1  0  0  0  0
 12 18  1  0  0  0  0
  2 19  1  0  0  0  0
 19 20  1  0  0  0  0
 20 21  2  0  0  0  0
 21 22  1  0  0  0  0
 22 23  2  0  0  0  0
 23 24  1  0  0  0  0
 24 25  2  0  0  0  0
 25 20  1  0  0  0  0
 23 26  1  0  0  0  0
 26 27  1  0  0  0  0
 27 28  1  0  0  0  0
 28 24  1  0  0  0  0
  4 29  1  0  0  0  0
 29 30  1  0  0  0  0
 30 31  2  0  0  0  0
 31  5  1  0  0  0  0
 21 32  1  0  0  0  0
 32 33  1  0  0  0  0
 28 34  1  0  0  0  0
 34 35  2  0  0  0  0
 34 36  1  0  0  0  0
 36 37  1  0  0  0  0
 37 38  1  0  0  0  0
 37 39  1  0  0  0  0
M  END
>  <Mol_ID> (193)
835

>  <Formula> (193)
C27H29FN8O3

>  <MolWeight> (193)
532.5693632

>  <Cat> (193)
S2703 

>  <Name> (193)
GSK1838705A

>  <Synonyms> (193)
N/A

>  <Target> (193)
IGF-1, ALK

>  <Form> (193)
Free Base

>  <CAS> (193)
1116235-97-2

>  <URL> (193)
http://www.selleckchem.com/products/gsk1838705a.html

$$$$
ZM336372.cdx
csChFnd80/05071909292D

 29 31  0  0  0  0  0  0  0  0999 V2000
    2.4165    2.1000    0.0000 C   0  0  0  0  0  0  0  0  0  0  0  0
    2.4165    0.7000    0.0000 C   0  0  0  0  0  0  0  0  0  0  0  0
    3.6289    0.0000    0.0000 C   0  0  0  0  0  0  0  0  0  0  0  0
    4.8413    0.7000    0.0000 C   0  0  0  0  0  0  0  0  0  0  0  0
    4.8413    2.1000    0.0000 C   0  0  0  0  0  0  0  0  0  0  0  0
    3.6289    2.8000    0.0000 C   0  0  0  0  0  0  0  0  0  0  0  0
    1.2082    2.7976    0.0000 N   0  0  0  0  0  0  0  0  0  0  0  0
    0.0000    2.1000    0.0000 C   0  0  0  0  0  0  0  0  0  0  0  0
    1.2082    4.1927    0.0000 C   0  0  0  0  0  0  0  0  0  0  0  0
    6.0496    2.7976    0.0000 C   0  0  0  0  0  0  0  0  0  0  0  0
    7.2578    2.1000    0.0000 N   0  0  0  0  0  0  0  0  0  0  0  0
    6.0496    4.1927    0.0000 O   0  0  0  0  0  0  0  0  0  0  0  0
    8.4660    2.7976    0.0000 C   0  0  0  0  0  0  0  0  0  0  0  0
    9.6784    2.0976    0.0000 C   0  0  0  0  0  0  0  0  0  0  0  0
   10.8909    2.7976    0.0000 C   0  0  0  0  0  0  0  0  0  0  0  0
   10.8909    4.1976    0.0000 C   0  0  0  0  0  0  0  0  0  0  0  0
    9.6784    4.8976    0.0000 C   0  0  0  0  0  0  0  0  0  0  0  0
    8.4660    4.1976    0.0000 C   0  0  0  0  0  0  0  0  0  0  0  0
   12.0991    4.8951    0.0000 C   0  0  0  0  0  0  0  0  0  0  0  0
   12.0991    2.1000    0.0000 N   0  0  0  0  0  0  0  0  0  0  0  0
   13.3073    2.7976    0.0000 C   0  0  0  0  0  0  0  0  0  0  0  0
   14.5156    2.1000    0.0000 C   0  0  0  0  0  0  0  0  0  0  0  0
   13.3073    4.1927    0.0000 O   0  0  0  0  0  0  0  0  0  0  0  0
   14.5156    0.7000    0.0000 C   0  0  0  0  0  0  0  0  0  0  0  0
   15.7280    0.0000    0.0000 C   0  0  0  0  0  0  0  0  0  0  0  0
   16.9404    0.7000    0.0000 C   0  0  0  0  0  0  0  0  0  0  0  0
   16.9404    2.1000    0.0000 C   0  0  0  0  0  0  0  0  0  0  0  0
   15.7280    2.8000    0.0000 C   0  0  0  0  0  0  0  0  0  0  0  0
   18.1487    0.0024    0.0000 O   0  0  0  0  0  0  0  0  0  0  0  0
  1  2  2  0  0  0  0
  2  3  1  0  0  0  0
  3  4  2  0  0  0  0
  4  5  1  0  0  0  0
  5  6  2  0  0  0  0
  6  1  1  0  0  0  0
  1  7  1  0  0  0  0
  7  8  1  0  0  0  0
  7  9  1  0  0  0  0
  5 10  1  0  0  0  0
 10 11  1  0  0  0  0
 10 12  2  0  0  0  0
 11 13  1  0  0  0  0
 13 14  2  0  0  0  0
 14 15  1  0  0  0  0
 15 16  2  0  0  0  0
 16 17  1  0  0  0  0
 17 18  2  0  0  0  0
 18 13  1  0  0  0  0
 16 19  1  0  0  0  0
 15 20  1  0  0  0  0
 20 21  1  0  0  0  0
 21 22  1  0  0  0  0
 21 23  2  0  0  0  0
 22 24  2  0  0  0  0
 24 25  1  0  0  0  0
 25 26  2  0  0  0  0
 26 27  1  0  0  0  0
 27 28  2  0  0  0  0
 28 22  1  0  0  0  0
 26 29  1  0  0  0  0
M  END
>  <Mol_ID> (194)
837

>  <Formula> (194)
C23H23N3O3

>  <MolWeight> (194)
389.44702

>  <Cat> (194)
S2720

>  <Name> (194)
ZM 336372

>  <Synonyms> (194)
N/A

>  <Target> (194)
Raf

>  <Form> (194)
Free Base

>  <CAS> (194)
208260-29-1

>  <URL> (194)
http://www.selleckchem.com/products/zm-336372.html

$$$$
GSK1070916.cdx
csChFnd80/05071909292D

 38 42  0  0  0  0  0  0  0  0999 V2000
    8.6373    2.1000    0.0000 C   0  0  0  0  0  0  0  0  0  0  0  0
    8.6373    0.7000    0.0000 C   0  0  0  0  0  0  0  0  0  0  0  0
    9.8497    0.0000    0.0000 N   0  0  0  0  0  0  0  0  0  0  0  0
   11.0622    0.7000    0.0000 C   0  0  0  0  0  0  0  0  0  0  0  0
   11.0622    2.1000    0.0000 C   0  0  0  0  0  0  0  0  0  0  0  0
    9.8497    2.8000    0.0000 C   0  0  0  0  0  0  0  0  0  0  0  0
   12.3937    0.2674    0.0000 N   0  0  0  0  0  0  0  0  0  0  0  0
   13.2166    1.4000    0.0000 C   0  0  0  0  0  0  0  0  0  0  0  0
   12.3937    2.5326    0.0000 C   0  0  0  0  0  0  0  0  0  0  0  0
   14.6117    1.4000    0.0000 C   0  0  0  0  0  0  0  0  0  0  0  0
   15.3117    0.1876    0.0000 C   0  0  0  0  0  0  0  0  0  0  0  0
   16.7117    0.1876    0.0000 C   0  0  0  0  0  0  0  0  0  0  0  0
   17.4117    1.4000    0.0000 C   0  0  0  0  0  0  0  0  0  0  0  0
   16.7117    2.6124    0.0000 C   0  0  0  0  0  0  0  0  0  0  0  0
   15.3117    2.6124    0.0000 C   0  0  0  0  0  0  0  0  0  0  0  0
   17.4093    3.8207    0.0000 C   0  0  0  0  0  0  0  0  0  0  0  0
   18.8093    3.8207    0.0000 N   0  0  0  0  0  0  0  0  0  0  0  0
   19.5068    5.0289    0.0000 C   0  0  0  0  0  0  0  0  0  0  0  0
   19.5068    2.6124    0.0000 C   0  0  0  0  0  0  0  0  0  0  0  0
    9.8497    4.1951    0.0000 C   0  0  0  0  0  0  0  0  0  0  0  0
   10.9824    5.0180    0.0000 C   0  0  0  0  0  0  0  0  0  0  0  0
   10.5497    6.3495    0.0000 N   0  0  0  0  0  0  0  0  0  0  0  0
    9.1497    6.3495    0.0000 N   0  0  0  0  0  0  0  0  0  0  0  0
    8.7171    5.0180    0.0000 C   0  0  0  0  0  0  0  0  0  0  0  0
   11.3698    7.4782    0.0000 C   0  0  0  0  0  0  0  0  0  0  0  0
   12.7573    7.3324    0.0000 C   0  0  0  0  0  0  0  0  0  0  0  0
    7.3903    4.5869    0.0000 C   0  0  0  0  0  0  0  0  0  0  0  0
    6.3499    5.5237    0.0000 C   0  0  0  0  0  0  0  0  0  0  0  0
    5.0184    5.0911    0.0000 C   0  0  0  0  0  0  0  0  0  0  0  0
    4.7273    3.7217    0.0000 C   0  0  0  0  0  0  0  0  0  0  0  0
    5.7677    2.7849    0.0000 C   0  0  0  0  0  0  0  0  0  0  0  0
    7.0992    3.2175    0.0000 C   0  0  0  0  0  0  0  0  0  0  0  0
    3.4004    3.2906    0.0000 N   0  0  0  0  0  0  0  0  0  0  0  0
    2.3636    4.2241    0.0000 C   0  0  0  0  0  0  0  0  0  0  0  0
    1.0368    3.7930    0.0000 N   0  0  0  0  0  0  0  0  0  0  0  0
    2.6537    5.5887    0.0000 O   0  0  0  0  0  0  0  0  0  0  0  0
    0.0000    4.7265    0.0000 C   0  0  0  0  0  0  0  0  0  0  0  0
    0.7467    2.4283    0.0000 C   0  0  0  0  0  0  0  0  0  0  0  0
  1  2  2  0  0  0  0
  2  3  1  0  0  0  0
  3  4  2  0  0  0  0
  4  5  1  0  0  0  0
  5  6  2  0  0  0  0
  6  1  1  0  0  0  0
  4  7  1  0  0  0  0
  7  8  1  0  0  0  0
  8  9  2  0  0  0  0
  9  5  1  0  0  0  0
  8 10  1  0  0  0  0
 10 11  2  0  0  0  0
 11 12  1  0  0  0  0
 12 13  2  0  0  0  0
 13 14  1  0  0  0  0
 14 15  2  0  0  0  0
 15 10  1  0  0  0  0
 14 16  1  0  0  0  0
 16 17  1  0  0  0  0
 17 18  1  0  0  0  0
 17 19  1  0  0  0  0
  6 20  1  0  0  0  0
 20 21  2  0  0  0  0
 21 22  1  0  0  0  0
 22 23  1  0  0  0  0
 23 24  2  0  0  0  0
 24 20  1  0  0  0  0
 22 25  1  0  0  0  0
 25 26  1  0  0  0  0
 24 27  1  0  0  0  0
 27 28  2  0  0  0  0
 28 29  1  0  0  0  0
 29 30  2  0  0  0  0
 30 31  1  0  0  0  0
 31 32  2  0  0  0  0
 32 27  1  0  0  0  0
 30 33  1  0  0  0  0
 33 34  1  0  0  0  0
 34 35  1  0  0  0  0
 34 36  2  0  0  0  0
 35 37  1  0  0  0  0
 35 38  1  0  0  0  0
M  END
>  <Mol_ID> (195)
838

>  <Formula> (195)
C30H33N7O

>  <MolWeight> (195)
507.62932

>  <Cat> (195)
S2740 

>  <Name> (195)
GSK1070916

>  <Synonyms> (195)
N/A 

>  <Target> (195)
Aurora Kinase

>  <Form> (195)
Free Base

>  <CAS> (195)
942918-07-2

>  <URL> (195)
http://www.selleckchem.com/products/gsk1070916.html

$$$$
TG101348.cdx
csChFnd80/05071909292D

 37 40  0  0  0  0  0  0  0  0999 V2000
    7.2620    7.6927    0.0000 C   0  0  0  0  0  0  0  0  0  0  0  0
    7.2620    6.2927    0.0000 C   0  0  0  0  0  0  0  0  0  0  0  0
    8.4744    5.5927    0.0000 C   0  0  0  0  0  0  0  0  0  0  0  0
    9.6869    6.2927    0.0000 C   0  0  0  0  0  0  0  0  0  0  0  0
    9.6869    7.6927    0.0000 C   0  0  0  0  0  0  0  0  0  0  0  0
    8.4744    8.3927    0.0000 C   0  0  0  0  0  0  0  0  0  0  0  0
    6.0538    8.3903    0.0000 O   0  0  0  0  0  0  0  0  0  0  0  0
    4.8455    7.6927    0.0000 C   0  0  0  0  0  0  0  0  0  0  0  0
    3.6373    8.3903    0.0000 C   0  0  0  0  0  0  0  0  0  0  0  0
    2.4291    7.6927    0.0000 N   0  0  0  0  0  0  0  0  0  0  0  0
    1.1501    8.2621    0.0000 C   0  0  0  0  0  0  0  0  0  0  0  0
    0.2133    7.2217    0.0000 C   0  0  0  0  0  0  0  0  0  0  0  0
    0.9133    6.0093    0.0000 C   0  0  0  0  0  0  0  0  0  0  0  0
    2.2827    6.3004    0.0000 C   0  0  0  0  0  0  0  0  0  0  0  0
   10.8951    5.5951    0.0000 N   0  0  0  0  0  0  0  0  0  0  0  0
   10.8951    4.1951    0.0000 C   0  0  0  0  0  0  0  0  0  0  0  0
    9.6827    3.4951    0.0000 N   0  0  0  0  0  0  0  0  0  0  0  0
    9.6827    2.0951    0.0000 C   0  0  0  0  0  0  0  0  0  0  0  0
   10.8951    1.3951    0.0000 C   0  0  0  0  0  0  0  0  0  0  0  0
   12.1075    2.0951    0.0000 C   0  0  0  0  0  0  0  0  0  0  0  0
   12.1075    3.4951    0.0000 N   0  0  0  0  0  0  0  0  0  0  0  0
    8.4744    1.3976    0.0000 N   0  0  0  0  0  0  0  0  0  0  0  0
    7.2662    2.0951    0.0000 C   0  0  0  0  0  0  0  0  0  0  0  0
   10.8951    0.0000    0.0000 C   0  0  0  0  0  0  0  0  0  0  0  0
    7.2662    3.4951    0.0000 C   0  0  0  0  0  0  0  0  0  0  0  0
    6.0538    4.1951    0.0000 C   0  0  0  0  0  0  0  0  0  0  0  0
    4.8413    3.4951    0.0000 C   0  0  0  0  0  0  0  0  0  0  0  0
    4.8413    2.0951    0.0000 C   0  0  0  0  0  0  0  0  0  0  0  0
    6.0538    1.3951    0.0000 C   0  0  0  0  0  0  0  0  0  0  0  0
    3.6331    1.3976    0.0000 S   0  0  0  0  0  0  0  0  0  0  0  0
    2.4207    0.6976    0.0000 N   0  0  0  0  0  0  0  0  0  0  0  0
    2.9355    2.6058    0.0000 O   0  0  0  0  0  0  0  0  0  0  0  0
    4.3307    0.1893    0.0000 O   0  0  0  0  0  0  0  0  0  0  0  0
    1.2124    1.3951    0.0000 C   0  0  0  0  0  0  0  0  0  0  0  0
    0.0042    0.6976    0.0000 C   0  0  0  0  0  0  0  0  0  0  0  0
    1.2124    2.7903    0.0000 C   0  0  0  0  0  0  0  0  0  0  0  0
    0.0000    2.0951    0.0000 C   0  0  0  0  0  0  0  0  0  0  0  0
  1  2  2  0  0  0  0
  2  3  1  0  0  0  0
  3  4  2  0  0  0  0
  4  5  1  0  0  0  0
  5  6  2  0  0  0  0
  6  1  1  0  0  0  0
  1  7  1  0  0  0  0
  7  8  1  0  0  0  0
  8  9  1  0  0  0  0
  9 10  1  0  0  0  0
 10 11  1  0  0  0  0
 11 12  1  0  0  0  0
 12 13  1  0  0  0  0
 13 14  1  0  0  0  0
 14 10  1  0  0  0  0
  4 15  1  0  0  0  0
 15 16  1  0  0  0  0
 16 17  2  0  0  0  0
 17 18  1  0  0  0  0
 18 19  2  0  0  0  0
 19 20  1  0  0  0  0
 20 21  2  0  0  0  0
 21 16  1  0  0  0  0
 18 22  1  0  0  0  0
 22 23  1  0  0  0  0
 19 24  1  0  0  0  0
 23 25  2  0  0  0  0
 25 26  1  0  0  0  0
 26 27  2  0  0  0  0
 27 28  1  0  0  0  0
 28 29  2  0  0  0  0
 29 23  1  0  0  0  0
 28 30  1  0  0  0  0
 30 31  1  0  0  0  0
 30 32  2  0  0  0  0
 30 33  2  0  0  0  0
 31 34  1  0  0  0  0
 34 35  1  0  0  0  0
 34 36  1  0  0  0  0
 34 37  1  0  0  0  0
M  END
>  <Mol_ID> (196)
840

>  <Formula> (196)
C27H36N6O3S

>  <MolWeight> (196)
524.67814

>  <Cat> (196)
S2736

>  <Name> (196)
Fedratinib (SAR302503, TG101348)

>  <Synonyms> (196)
N/A

>  <Target> (196)
JAK 

>  <Form> (196)
Free Base

>  <CAS> (196)
936091-26-8

>  <URL> (196)
http://www.selleckchem.com/products/tg-101348.html

$$$$
AZ3146.cdx
csChFnd80/05071909292D

 33 37  0  0  0  0  0  0  0  0999 V2000
    6.0496    5.4247    0.0000 C   0  0  0  0  0  0  0  0  0  0  0  0
    6.0496    4.0247    0.0000 C   0  0  0  0  0  0  0  0  0  0  0  0
    7.2620    3.3247    0.0000 C   0  0  0  0  0  0  0  0  0  0  0  0
    8.4744    4.0247    0.0000 C   0  0  0  0  0  0  0  0  0  0  0  0
    8.4744    5.4247    0.0000 C   0  0  0  0  0  0  0  0  0  0  0  0
    7.2620    6.1247    0.0000 C   0  0  0  0  0  0  0  0  0  0  0  0
    9.6827    3.3272    0.0000 N   0  0  0  0  0  0  0  0  0  0  0  0
   10.8909    4.0247    0.0000 C   0  0  0  0  0  0  0  0  0  0  0  0
    4.8413    6.1223    0.0000 O   0  0  0  0  0  0  0  0  0  0  0  0
    3.6331    5.4247    0.0000 C   0  0  0  0  0  0  0  0  0  0  0  0
   12.1033    3.3247    0.0000 N   0  0  0  0  0  0  0  0  0  0  0  0
   13.3157    4.0247    0.0000 C   0  0  0  0  0  0  0  0  0  0  0  0
   13.3157    5.4247    0.0000 C   0  0  0  0  0  0  0  0  0  0  0  0
   12.1033    6.1247    0.0000 C   0  0  0  0  0  0  0  0  0  0  0  0
   10.8909    5.4247    0.0000 N   0  0  0  0  0  0  0  0  0  0  0  0
    2.4207    6.1247    0.0000 C   0  0  0  0  0  0  0  0  0  0  0  0
    1.2082    5.4247    0.0000 C   0  0  0  0  0  0  0  0  0  0  0  0
    1.2082    4.0247    0.0000 N   0  0  0  0  0  0  0  0  0  0  0  0
    2.4207    3.3247    0.0000 C   0  0  0  0  0  0  0  0  0  0  0  0
    3.6331    4.0247    0.0000 C   0  0  0  0  0  0  0  0  0  0  0  0
    0.0000    3.3272    0.0000 C   0  0  0  0  0  0  0  0  0  0  0  0
    7.2620    1.9296    0.0000 O   0  0  0  0  0  0  0  0  0  0  0  0
    6.0538    1.2320    0.0000 C   0  0  0  0  0  0  0  0  0  0  0  0
   14.6472    3.5921    0.0000 N   0  0  0  0  0  0  0  0  0  0  0  0
   15.4701    4.7247    0.0000 C   0  0  0  0  0  0  0  0  0  0  0  0
   14.6472    5.8574    0.0000 N   0  0  0  0  0  0  0  0  0  0  0  0
   15.0783    2.2652    0.0000 C   0  0  0  0  0  0  0  0  0  0  0  0
   15.0783    7.1842    0.0000 C   0  0  0  0  0  0  0  0  0  0  0  0
   16.8653    4.7247    0.0000 O   0  0  0  0  0  0  0  0  0  0  0  0
   14.2554    1.1326    0.0000 C   0  0  0  0  0  0  0  0  0  0  0  0
   15.0783    0.0000    0.0000 C   0  0  0  0  0  0  0  0  0  0  0  0
   16.4098    0.4326    0.0000 C   0  0  0  0  0  0  0  0  0  0  0  0
   16.4098    1.8326    0.0000 C   0  0  0  0  0  0  0  0  0  0  0  0
  1  2  2  0  0  0  0
  2  3  1  0  0  0  0
  3  4  2  0  0  0  0
  4  5  1  0  0  0  0
  5  6  2  0  0  0  0
  6  1  1  0  0  0  0
  4  7  1  0  0  0  0
  7  8  1  0  0  0  0
  1  9  1  0  0  0  0
  9 10  1  0  0  0  0
  8 11  2  0  0  0  0
 11 12  1  0  0  0  0
 12 13  2  0  0  0  0
 13 14  1  0  0  0  0
 14 15  2  0  0  0  0
 15  8  1  0  0  0  0
 10 16  1  0  0  0  0
 16 17  1  0  0  0  0
 17 18  1  0  0  0  0
 18 19  1  0  0  0  0
 19 20  1  0  0  0  0
 20 10  1  0  0  0  0
 18 21  1  0  0  0  0
  3 22  1  0  0  0  0
 22 23  1  0  0  0  0
 12 24  1  0  0  0  0
 24 25  1  0  0  0  0
 25 26  1  0  0  0  0
 26 13  1  0  0  0  0
 24 27  1  0  0  0  0
 26 28  1  0  0  0  0
 25 29  2  0  0  0  0
 27 30  1  0  0  0  0
 30 31  1  0  0  0  0
 31 32  1  0  0  0  0
 32 33  1  0  0  0  0
 33 27  1  0  0  0  0
M  END
>  <Mol_ID> (197)
841

>  <Formula> (197)
C24H32N6O3

>  <MolWeight> (197)
452.54928

>  <Cat> (197)
S2731

>  <Name> (197)
AZ 3146

>  <Synonyms> (197)
N/A

>  <Target> (197)
Kinesin

>  <Form> (197)
Free Base

>  <CAS> (197)
1124329-14-1

>  <URL> (197)
http://www.selleckchem.com/products/az-3146.html

$$$$
CH2132799.cdx
csChFnd80/05071909292D

 26 29  0  0  0  0  0  0  0  0999 V2000
    1.2082    2.1000    0.0000 N   0  0  0  0  0  0  0  0  0  0  0  0
    1.2082    0.7000    0.0000 C   0  0  0  0  0  0  0  0  0  0  0  0
    2.4207    0.0000    0.0000 N   0  0  0  0  0  0  0  0  0  0  0  0
    3.6331    0.7000    0.0000 C   0  0  0  0  0  0  0  0  0  0  0  0
    3.6331    2.1000    0.0000 C   0  0  0  0  0  0  0  0  0  0  0  0
    2.4207    2.8000    0.0000 C   0  0  0  0  0  0  0  0  0  0  0  0
    0.0000    0.0024    0.0000 N   0  0  0  0  0  0  0  0  0  0  0  0
    4.8413    2.7976    0.0000 C   0  0  0  0  0  0  0  0  0  0  0  0
    6.0538    2.0976    0.0000 C   0  0  0  0  0  0  0  0  0  0  0  0
    7.2662    2.7976    0.0000 C   0  0  0  0  0  0  0  0  0  0  0  0
    7.2662    4.1976    0.0000 N   0  0  0  0  0  0  0  0  0  0  0  0
    6.0538    4.8976    0.0000 C   0  0  0  0  0  0  0  0  0  0  0  0
    4.8413    4.1976    0.0000 N   0  0  0  0  0  0  0  0  0  0  0  0
    6.0538    6.2927    0.0000 N   0  0  0  0  0  0  0  0  0  0  0  0
    6.3448    0.7282    0.0000 C   0  0  0  0  0  0  0  0  0  0  0  0
    7.7372    0.5818    0.0000 C   0  0  0  0  0  0  0  0  0  0  0  0
    8.3066    1.8608    0.0000 N   0  0  0  0  0  0  0  0  0  0  0  0
    7.2662    6.9927    0.0000 C   0  0  0  0  0  0  0  0  0  0  0  0
    7.2662    8.3927    0.0000 C   0  0  0  0  0  0  0  0  0  0  0  0
    6.0538    9.0927    0.0000 O   0  0  0  0  0  0  0  0  0  0  0  0
    4.8413    8.3927    0.0000 C   0  0  0  0  0  0  0  0  0  0  0  0
    4.8413    6.9927    0.0000 C   0  0  0  0  0  0  0  0  0  0  0  0
    9.6713    2.1509    0.0000 S   0  0  0  0  0  0  0  0  0  0  0  0
   11.0236    2.5132    0.0000 C   0  0  0  0  0  0  0  0  0  0  0  0
    9.9969    0.7943    0.0000 O   0  0  0  0  0  0  0  0  0  0  0  0
    9.3456    3.5074    0.0000 O   0  0  0  0  0  0  0  0  0  0  0  0
  1  2  2  0  0  0  0
  2  3  1  0  0  0  0
  3  4  2  0  0  0  0
  4  5  1  0  0  0  0
  5  6  2  0  0  0  0
  6  1  1  0  0  0  0
  2  7  1  0  0  0  0
  5  8  1  0  0  0  0
  8  9  2  0  0  0  0
  9 10  1  0  0  0  0
 10 11  2  0  0  0  0
 11 12  1  0  0  0  0
 12 13  2  0  0  0  0
 13  8  1  0  0  0  0
 12 14  1  0  0  0  0
  9 15  1  0  0  0  0
 15 16  1  0  0  0  0
 16 17  1  0  0  0  0
 17 10  1  0  0  0  0
 14 18  1  0  0  0  0
 18 19  1  0  0  0  0
 19 20  1  0  0  0  0
 20 21  1  0  0  0  0
 21 22  1  0  0  0  0
 22 14  1  0  0  0  0
 17 23  1  0  0  0  0
 23 24  1  0  0  0  0
 23 25  2  0  0  0  0
 23 26  2  0  0  0  0
M  END
>  <Mol_ID> (198)
842

>  <Formula> (198)
C15H19N7O3S

>  <MolWeight> (198)
377.42146

>  <Cat> (198)
S2699

>  <Name> (198)
CH5132799

>  <Synonyms> (198)
N/A

>  <Target> (198)
PI3K, mTOR

>  <Form> (198)
Free Base

>  <CAS> (198)
1007207-67-1

>  <URL> (198)
http://www.selleckchem.com/products/ch5132799.html

$$$$
GDC 0980.cdx
csChFnd80/05071909292D

 35 39  0  0  0  0  0  0  0  0999 V2000
   12.0705    2.1000    0.0000 C   0  0  0  0  0  0  0  0  0  0  0  0
   12.0705    0.7000    0.0000 C   0  0  0  0  0  0  0  0  0  0  0  0
   13.2829    0.0000    0.0000 N   0  0  0  0  0  0  0  0  0  0  0  0
   14.4953    0.7000    0.0000 C   0  0  0  0  0  0  0  0  0  0  0  0
   14.4953    2.1000    0.0000 N   0  0  0  0  0  0  0  0  0  0  0  0
   13.2829    2.8000    0.0000 C   0  0  0  0  0  0  0  0  0  0  0  0
   15.7036    0.0024    0.0000 N   0  0  0  0  0  0  0  0  0  0  0  0
   10.8622    2.7976    0.0000 C   0  0  0  0  0  0  0  0  0  0  0  0
   10.8622    4.1976    0.0000 N   0  0  0  0  0  0  0  0  0  0  0  0
    9.6498    4.8976    0.0000 C   0  0  0  0  0  0  0  0  0  0  0  0
    8.4374    4.1976    0.0000 C   0  0  0  0  0  0  0  0  0  0  0  0
    8.4374    2.7976    0.0000 C   0  0  0  0  0  0  0  0  0  0  0  0
    9.6498    2.0976    0.0000 N   0  0  0  0  0  0  0  0  0  0  0  0
    7.1059    4.6302    0.0000 S   0  0  0  0  0  0  0  0  0  0  0  0
    6.2830    3.4976    0.0000 C   0  0  0  0  0  0  0  0  0  0  0  0
    7.1059    2.3649    0.0000 C   0  0  0  0  0  0  0  0  0  0  0  0
    6.6748    1.0381    0.0000 C   0  0  0  0  0  0  0  0  0  0  0  0
    9.6498    6.2927    0.0000 N   0  0  0  0  0  0  0  0  0  0  0  0
   10.8622    6.9927    0.0000 C   0  0  0  0  0  0  0  0  0  0  0  0
   10.8622    8.3927    0.0000 C   0  0  0  0  0  0  0  0  0  0  0  0
    9.6498    9.0927    0.0000 O   0  0  0  0  0  0  0  0  0  0  0  0
    8.4374    8.3927    0.0000 C   0  0  0  0  0  0  0  0  0  0  0  0
    8.4374    6.9927    0.0000 C   0  0  0  0  0  0  0  0  0  0  0  0
    4.8879    3.4976    0.0000 C   0  0  0  0  0  0  0  0  0  0  0  0
    4.1903    4.7058    0.0000 N   0  0  0  0  0  0  0  0  0  0  0  0
    4.8903    5.9182    0.0000 C   0  0  0  0  0  0  0  0  0  0  0  0
    4.1903    7.1307    0.0000 C   0  0  0  0  0  0  0  0  0  0  0  0
    2.7903    7.1307    0.0000 N   0  0  0  0  0  0  0  0  0  0  0  0
    2.0903    5.9182    0.0000 C   0  0  0  0  0  0  0  0  0  0  0  0
    2.7903    4.7058    0.0000 C   0  0  0  0  0  0  0  0  0  0  0  0
    2.0927    8.3389    0.0000 C   0  0  0  0  0  0  0  0  0  0  0  0
    0.6976    8.3389    0.0000 C   0  0  1  0  0  0  0  0  0  0  0  0
    2.7903    9.5471    0.0000 O   0  0  0  0  0  0  0  0  0  0  0  0
    0.0000    9.5471    0.0000 O   0  0  0  0  0  0  0  0  0  0  0  0
    0.0000    7.1307    0.0000 C   0  0  0  0  0  0  0  0  0  0  0  0
  1  2  2  0  0  0  0
  2  3  1  0  0  0  0
  3  4  2  0  0  0  0
  4  5  1  0  0  0  0
  5  6  2  0  0  0  0
  6  1  1  0  0  0  0
  4  7  1  0  0  0  0
  1  8  1  0  0  0  0
  8  9  2  0  0  0  0
  9 10  1  0  0  0  0
 10 11  2  0  0  0  0
 11 12  1  0  0  0  0
 12 13  2  0  0  0  0
 13  8  1  0  0  0  0
 11 14  1  0  0  0  0
 14 15  1  0  0  0  0
 15 16  2  0  0  0  0
 16 12  1  0  0  0  0
 16 17  1  0  0  0  0
 10 18  1  0  0  0  0
 18 19  1  0  0  0  0
 19 20  1  0  0  0  0
 20 21  1  0  0  0  0
 21 22  1  0  0  0  0
 22 23  1  0  0  0  0
 23 18  1  0  0  0  0
 15 24  1  0  0  0  0
 24 25  1  0  0  0  0
 25 26  1  0  0  0  0
 26 27  1  0  0  0  0
 27 28  1  0  0  0  0
 28 29  1  0  0  0  0
 29 30  1  0  0  0  0
 30 25  1  0  0  0  0
 28 31  1  0  0  0  0
 31 32  1  0  0  0  0
 31 33  2  0  0  0  0
 32 34  1  0  0  0  0
 32 35  1  6  0  0  0
M  END
>  <Mol_ID> (199)
843

>  <Formula> (199)
C23H30N8O3S

>  <MolWeight> (199)
498.6011

>  <Cat> (199)
S2696 

>  <Name> (199)
Apitolisib (GDC-0980, RG7422)

>  <Synonyms> (199)
N/A 

>  <Target> (199)
mTOR, PI3K

>  <Form> (199)
Free Base

>  <CAS> (199)
1032754-93-0

>  <URL> (199)
http://www.selleckchem.com/products/GDC-0980-RG7422.html

$$$$
Flavopiridol hydrochloride.cdx
csChFnd80/05071909292D

 30 32  0  0  0  0  0  0  0  0999 V2000
    1.2082    8.6455    0.0000 C   0  0  0  0  0  0  0  0  0  0  0  0
    1.2082    7.2455    0.0000 C   0  0  0  0  0  0  0  0  0  0  0  0
    2.4207    6.5455    0.0000 C   0  0  0  0  0  0  0  0  0  0  0  0
    3.6331    7.2455    0.0000 C   0  0  0  0  0  0  0  0  0  0  0  0
    3.6331    8.6455    0.0000 C   0  0  0  0  0  0  0  0  0  0  0  0
    2.4207    9.3455    0.0000 C   0  0  0  0  0  0  0  0  0  0  0  0
    4.8455    6.5455    0.0000 O   0  0  0  0  0  0  0  0  0  0  0  0
    6.0580    7.2455    0.0000 C   0  0  0  0  0  0  0  0  0  0  0  0
    6.0580    8.6455    0.0000 C   0  0  0  0  0  0  0  0  0  0  0  0
    4.8455    9.3455    0.0000 C   0  0  0  0  0  0  0  0  0  0  0  0
    4.8455   10.7406    0.0000 O   0  0  0  0  0  0  0  0  0  0  0  0
    2.4207   10.7406    0.0000 O   0  0  0  0  0  0  0  0  0  0  0  0
    0.0000    6.5479    0.0000 O   0  0  0  0  0  0  0  0  0  0  0  0
    2.4207    5.1504    0.0000 C   0  0  2  0  0  0  0  0  0  0  0  0
    1.2082    4.4504    0.0000 C   0  0  1  0  0  0  0  0  0  0  0  0
    1.2082    3.0504    0.0000 C   0  0  0  0  0  0  0  0  0  0  0  0
    2.4207    2.3504    0.0000 N   0  0  0  0  0  0  0  0  0  0  0  0
    3.6331    3.0504    0.0000 C   0  0  0  0  0  0  0  0  0  0  0  0
    3.6331    4.4504    0.0000 C   0  0  0  0  0  0  0  0  0  0  0  0
    3.6289    5.8479    0.0000 H   0  0  0  0  0  0  0  0  0  0  0  0
    0.0000    5.1479    0.0000 O   0  0  0  0  0  0  0  0  0  0  0  0
    2.4207    0.9552    0.0000 C   0  0  0  0  0  0  0  0  0  0  0  0
    7.2662    6.5479    0.0000 C   0  0  0  0  0  0  0  0  0  0  0  0
    7.2662    5.1479    0.0000 C   0  0  0  0  0  0  0  0  0  0  0  0
    8.4786    4.4479    0.0000 C   0  0  0  0  0  0  0  0  0  0  0  0
    9.6911    5.1479    0.0000 C   0  0  0  0  0  0  0  0  0  0  0  0
    9.6911    6.5479    0.0000 C   0  0  0  0  0  0  0  0  0  0  0  0
    8.4786    7.2479    0.0000 C   0  0  0  0  0  0  0  0  0  0  0  0
    6.0580    4.4504    0.0000 Cl  0  0  0  0  0  0  0  0  0  0  0  0
    4.9576    0.0000    0.0000 Cl  0  0  0  0  0  0  0  0  0  0  0  0
  1  2  2  0  0  0  0
  2  3  1  0  0  0  0
  3  4  2  0  0  0  0
  4  5  1  0  0  0  0
  5  6  2  0  0  0  0
  6  1  1  0  0  0  0
  4  7  1  0  0  0  0
  7  8  1  0  0  0  0
  8  9  2  0  0  0  0
  9 10  1  0  0  0  0
 10  5  1  0  0  0  0
 10 11  2  0  0  0  0
  6 12  1  0  0  0  0
  2 13  1  0  0  0  0
  3 14  1  0  0  0  0
 14 15  1  0  0  0  0
 15 16  1  0  0  0  0
 16 17  1  0  0  0  0
 17 18  1  0  0  0  0
 18 19  1  0  0  0  0
 19 14  1  0  0  0  0
 14 20  1  6  0  0  0
 15 21  1  1  0  0  0
 17 22  1  0  0  0  0
  8 23  1  0  0  0  0
 23 24  2  0  0  0  0
 24 25  1  0  0  0  0
 25 26  2  0  0  0  0
 26 27  1  0  0  0  0
 27 28  2  0  0  0  0
 28 23  1  0  0  0  0
 24 29  1  0  0  0  0
M  END
>  <Mol_ID> (200)
852

>  <Formula> (200)
C21H21Cl2NO5

>  <MolWeight> (200)
438.30114

>  <Cat> (200)
S2679

>  <Name> (200)
Flavopiridol (Alvocidib) HCl

>  <Synonyms> (200)
N/A

>  <Target> (200)
CDK

>  <Form> (200)
Hydrochloride

>  <CAS> (200)
131740-09-5

>  <URL> (200)
http://www.selleckchem.com/products/flavopiridol-hydrochloride.html

$$$$
PH797804.cdx
csChFnd80/05071909292D

 30 32  0  0  0  0  0  0  0  0999 V2000
    4.8951   10.8909    0.0000 C   0  0  0  0  0  0  0  0  0  0  0  0
    6.2951   10.8909    0.0000 C   0  0  0  0  0  0  0  0  0  0  0  0
    6.9951   12.1033    0.0000 C   0  0  0  0  0  0  0  0  0  0  0  0
    6.2951   13.3157    0.0000 C   0  0  0  0  0  0  0  0  0  0  0  0
    4.8951   13.3157    0.0000 C   0  0  0  0  0  0  0  0  0  0  0  0
    4.1951   12.1033    0.0000 C   0  0  0  0  0  0  0  0  0  0  0  0
    4.1976   14.5240    0.0000 C   0  0  0  0  0  0  0  0  0  0  0  0
    4.8951   15.7322    0.0000 O   0  0  0  0  0  0  0  0  0  0  0  0
    2.8024   14.5240    0.0000 N   0  0  0  0  0  0  0  0  0  0  0  0
    2.1049   13.3157    0.0000 C   0  0  0  0  0  0  0  0  0  0  0  0
    4.1976    9.6826    0.0000 N   0  0  0  0  0  0  0  0  0  0  0  0
    6.9927    9.6826    0.0000 C   0  0  0  0  0  0  0  0  0  0  0  0
    2.7976    9.6826    0.0000 C   0  0  0  0  0  0  0  0  0  0  0  0
    2.0976    8.4702    0.0000 C   0  0  0  0  0  0  0  0  0  0  0  0
    2.7976    7.2578    0.0000 C   0  0  0  0  0  0  0  0  0  0  0  0
    4.1976    7.2578    0.0000 C   0  0  0  0  0  0  0  0  0  0  0  0
    4.8976    8.4702    0.0000 C   0  0  0  0  0  0  0  0  0  0  0  0
    2.1000   10.8909    0.0000 C   0  0  0  0  0  0  0  0  0  0  0  0
    6.2927    8.4702    0.0000 O   0  0  0  0  0  0  0  0  0  0  0  0
    4.8951    6.0496    0.0000 Br  0  0  0  0  0  0  0  0  0  0  0  0
    2.1000    6.0496    0.0000 O   0  0  0  0  0  0  0  0  0  0  0  0
    2.7976    4.8413    0.0000 C   0  0  0  0  0  0  0  0  0  0  0  0
    2.1000    3.6331    0.0000 C   0  0  0  0  0  0  0  0  0  0  0  0
    0.7000    3.6331    0.0000 C   0  0  0  0  0  0  0  0  0  0  0  0
    0.0000    2.4207    0.0000 C   0  0  0  0  0  0  0  0  0  0  0  0
    0.7000    1.2082    0.0000 C   0  0  0  0  0  0  0  0  0  0  0  0
    2.1000    1.2082    0.0000 C   0  0  0  0  0  0  0  0  0  0  0  0
    2.8000    2.4207    0.0000 C   0  0  0  0  0  0  0  0  0  0  0  0
    4.1951    2.4207    0.0000 F   0  0  0  0  0  0  0  0  0  0  0  0
    0.0024    0.0000    0.0000 F   0  0  0  0  0  0  0  0  0  0  0  0
  1  2  2  0  0  0  0
  2  3  1  0  0  0  0
  3  4  2  0  0  0  0
  4  5  1  0  0  0  0
  5  6  2  0  0  0  0
  6  1  1  0  0  0  0
  5  7  1  0  0  0  0
  7  8  2  0  0  0  0
  7  9  1  0  0  0  0
  9 10  1  0  0  0  0
  1 11  1  0  0  0  0
  2 12  1  0  0  0  0
 11 13  1  0  0  0  0
 13 14  2  0  0  0  0
 14 15  1  0  0  0  0
 15 16  2  0  0  0  0
 16 17  1  0  0  0  0
 17 11  1  0  0  0  0
 13 18  1  0  0  0  0
 17 19  2  0  0  0  0
 16 20  1  0  0  0  0
 15 21  1  0  0  0  0
 21 22  1  0  0  0  0
 22 23  1  0  0  0  0
 23 24  2  0  0  0  0
 24 25  1  0  0  0  0
 25 26  2  0  0  0  0
 26 27  1  0  0  0  0
 27 28  2  0  0  0  0
 28 23  1  0  0  0  0
 28 29  1  0  0  0  0
 26 30  1  0  0  0  0
M  END
>  <Mol_ID> (201)
853

>  <Formula> (201)
C22H19BrF2N2O3

>  <MolWeight> (201)
477.2986664

>  <Cat> (201)
S2726

>  <Name> (201)
PH-797804

>  <Synonyms> (201)
N/A

>  <Target> (201)
p38 MAPK

>  <Form> (201)
Free Base

>  <CAS> (201)
586379-66-0

>  <URL> (201)
http://www.selleckchem.com/products/ph-797804.html

$$$$
PF299804.cdx
csChFnd80/05071909292D

 33 36  0  0  0  0  0  0  0  0999 V2000
    3.6381    2.8003    0.0000 C   0  0  0  0  0  0  0  0  0  0  0  0
    4.8556    3.4989    0.0000 C   0  0  0  0  0  0  0  0  0  0  0  0
    2.4304    3.4989    0.0000 N   0  0  0  0  0  0  0  0  0  0  0  0
    6.0730    2.8003    0.0000 C   0  0  0  0  0  0  0  0  0  0  0  0
    7.2904    3.4989    0.0000 C   0  0  0  0  0  0  0  0  0  0  0  0
    8.5078    2.8003    0.0000 N   0  0  0  0  0  0  0  0  0  0  0  0
    7.2904    4.9058    0.0000 O   0  0  0  0  0  0  0  0  0  0  0  0
    2.4309    4.9080    0.0000 C   0  0  0  0  0  0  0  0  0  0  0  0
    1.2231    5.6064    0.0000 C   0  0  0  0  0  0  0  0  0  0  0  0
    0.0000    4.9160    0.0000 C   0  0  0  0  0  0  0  0  0  0  0  0
    0.0051    3.5069    0.0000 C   0  0  0  0  0  0  0  0  0  0  0  0
    1.2138    2.7979    0.0000 C   0  0  0  0  0  0  0  0  0  0  0  0
    9.7255    2.0925    0.0000 C   0  0  0  0  0  0  0  0  0  0  0  0
    9.7228    0.6995    0.0000 C   0  0  0  0  0  0  0  0  0  0  0  0
   10.9313    0.0000    0.0000 C   0  0  0  0  0  0  0  0  0  0  0  0
   10.9271    2.7917    0.0000 C   0  0  0  0  0  0  0  0  0  0  0  0
   12.1369    2.1009    0.0000 C   0  0  0  0  0  0  0  0  0  0  0  0
   12.1387    0.6994    0.0000 C   0  0  0  0  0  0  0  0  0  0  0  0
   13.3484    0.0045    0.0000 N   0  0  0  0  0  0  0  0  0  0  0  0
   14.5574    0.7083    0.0000 C   0  0  0  0  0  0  0  0  0  0  0  0
   14.5560    2.1171    0.0000 N   0  0  0  0  0  0  0  0  0  0  0  0
   13.3450    2.8034    0.0000 C   0  0  0  0  0  0  0  0  0  0  0  0
    8.5046    0.0022    0.0000 O   0  0  0  0  0  0  0  0  0  0  0  0
   13.3348    4.2005    0.0000 N   0  0  0  0  0  0  0  0  0  0  0  0
    7.2976    0.7021    0.0000 C   0  0  0  0  0  0  0  0  0  0  0  0
   14.5316    4.9158    0.0000 C   0  0  0  0  0  0  0  0  0  0  0  0
   15.7474    4.2185    0.0000 C   0  0  0  0  0  0  0  0  0  0  0  0
   16.9528    4.9322    0.0000 C   0  0  0  0  0  0  0  0  0  0  0  0
   16.9436    6.3304    0.0000 C   0  0  0  0  0  0  0  0  0  0  0  0
   15.7151    7.0106    0.0000 C   0  0  0  0  0  0  0  0  0  0  0  0
   14.5166    6.3012    0.0000 C   0  0  0  0  0  0  0  0  0  0  0  0
   18.1399    7.0387    0.0000 F   0  0  0  0  0  0  0  0  0  0  0  0
   18.1699    4.2404    0.0000 Cl  0  0  0  0  0  0  0  0  0  0  0  0
  1  2  1  0  0  0  0
  1  3  1  0  0  0  0
  2  4  2  0  0  0  0
  4  5  1  0  0  0  0
  5  6  1  0  0  0  0
  5  7  2  0  0  0  0
  3  8  1  0  0  0  0
  3 12  1  0  0  0  0
  8  9  1  0  0  0  0
  9 10  1  0  0  0  0
 10 11  1  0  0  0  0
 11 12  1  0  0  0  0
 13 14  2  0  0  0  0
 14 15  1  0  0  0  0
 15 18  2  0  0  0  0
 17 16  2  0  0  0  0
 16 13  1  0  0  0  0
 17 18  1  0  0  0  0
 18 19  1  0  0  0  0
 19 20  2  0  0  0  0
 20 21  1  0  0  0  0
 21 22  2  0  0  0  0
 22 17  1  0  0  0  0
 14 23  1  0  0  0  0
 22 24  1  0  0  0  0
 13  6  1  0  0  0  0
 23 25  1  0  0  0  0
 24 26  1  0  0  0  0
 26 27  2  0  0  0  0
 27 28  1  0  0  0  0
 28 29  2  0  0  0  0
 29 30  1  0  0  0  0
 30 31  2  0  0  0  0
 31 26  1  0  0  0  0
 29 32  1  0  0  0  0
 28 33  1  0  0  0  0
M  END
>  <Mol_ID> (202)
854

>  <Formula> (202)
C24H25ClFN5O2

>  <MolWeight> (202)
469.9390032

>  <Cat> (202)
S2727

>  <Name> (202)
Dacomitinib (PF299804, PF-00299804)

>  <Synonyms> (202)
N/A

>  <Target> (202)
EGFR

>  <Form> (202)
Free Base

>  <CAS> (202)
1110813-31-4

>  <URL> (202)
http://www.selleckchem.com/products/pf299804.html

$$$$
SB415286.cdx
csChFnd80/05071909292D

 25 27  0  0  0  0  0  0  0  0999 V2000
    4.2396    5.3838    0.0000 C   0  0  0  0  0  0  0  0  0  0  0  0
    4.7196    4.0687    0.0000 C   0  0  0  0  0  0  0  0  0  0  0  0
    6.1187    4.1187    0.0000 C   0  0  0  0  0  0  0  0  0  0  0  0
    6.5034    5.4648    0.0000 C   0  0  0  0  0  0  0  0  0  0  0  0
    5.3421    6.2467    0.0000 N   0  0  0  0  0  0  0  0  0  0  0  0
    3.7032    2.5589    0.0000 C   0  0  0  0  0  0  0  0  0  0  0  0
    6.9816    3.0163    0.0000 N   0  0  0  0  0  0  0  0  0  0  0  0
    2.3110    2.4114    0.0000 C   0  0  0  0  0  0  0  0  0  0  0  0
    1.7427    1.1319    0.0000 C   0  0  0  0  0  0  0  0  0  0  0  0
    2.5666    0.0000    0.0000 C   0  0  0  0  0  0  0  0  0  0  0  0
    3.9588    0.1476    0.0000 C   0  0  0  0  0  0  0  0  0  0  0  0
    4.5271    1.4270    0.0000 C   0  0  0  0  0  0  0  0  0  0  0  0
    8.5078    3.0023    0.0000 C   0  0  0  0  0  0  0  0  0  0  0  0
    9.1913    1.7805    0.0000 C   0  0  0  0  0  0  0  0  0  0  0  0
   10.5911    1.7805    0.0000 C   0  0  0  0  0  0  0  0  0  0  0  0
   11.3076    3.0023    0.0000 C   0  0  0  0  0  0  0  0  0  0  0  0
   10.5911    4.2242    0.0000 C   0  0  0  0  0  0  0  0  0  0  0  0
    9.1913    4.2242    0.0000 C   0  0  0  0  0  0  0  0  0  0  0  0
    2.8935    5.7685    0.0000 O   0  0  0  0  0  0  0  0  0  0  0  0
    7.8186    5.9448    0.0000 O   0  0  0  0  0  0  0  0  0  0  0  0
   12.7076    3.0023    0.0000 O   0  0  0  0  0  0  0  0  0  0  0  0
   11.2871    0.5657    0.0000 Cl  0  0  0  0  0  0  0  0  0  0  0  0
    1.3066    3.3796    0.0000 N   0  3  0  0  0  0  0  0  0  0  0  0
    0.0000    2.8768    0.0000 O   0  0  0  0  0  0  0  0  0  0  0  0
    1.6441    4.7383    0.0000 O   0  5  0  0  0  0  0  0  0  0  0  0
  1  2  1  0  0  0  0
  2  3  2  0  0  0  0
  3  4  1  0  0  0  0
  4  5  1  0  0  0  0
  5  1  1  0  0  0  0
  2  6  1  0  0  0  0
  3  7  1  0  0  0  0
  6  8  2  0  0  0  0
  8  9  1  0  0  0  0
  9 10  2  0  0  0  0
 10 11  1  0  0  0  0
 11 12  2  0  0  0  0
 12  6  1  0  0  0  0
  7 13  1  0  0  0  0
 13 14  2  0  0  0  0
 14 15  1  0  0  0  0
 15 16  2  0  0  0  0
 16 17  1  0  0  0  0
 17 18  2  0  0  0  0
 18 13  1  0  0  0  0
  1 19  2  0  0  0  0
  4 20  2  0  0  0  0
 16 21  1  0  0  0  0
 15 22  1  0  0  0  0
  8 23  1  0  0  0  0
 23 24  2  0  0  0  0
 23 25  1  0  0  0  0
M  END
>  <Mol_ID> (203)
855

>  <Formula> (203)
C16H10ClN3O5

>  <MolWeight> (203)
359.7207

>  <Cat> (203)
S2729

>  <Name> (203)
SB 415286

>  <Synonyms> (203)
N/A

>  <Target> (203)
GSK-3

>  <Form> (203)
Free Base

>  <CAS> (203)
264218-23-7

>  <URL> (203)
http://www.selleckchem.com/products/sb-415286.html

$$$$
INK 128.cdx
csChFnd80/05071909292D

 23 26  0  0  0  0  0  0  0  0999 V2000
    0.0000    4.1963    0.0000 N   0  0  0  0  0  0  0  0  0  0  0  0
    0.0000    2.7963    0.0000 C   0  0  0  0  0  0  0  0  0  0  0  0
    1.2124    2.0963    0.0000 N   0  0  0  0  0  0  0  0  0  0  0  0
    2.4249    2.7963    0.0000 C   0  0  0  0  0  0  0  0  0  0  0  0
    2.4249    4.1963    0.0000 C   0  0  0  0  0  0  0  0  0  0  0  0
    1.2124    4.8963    0.0000 C   0  0  0  0  0  0  0  0  0  0  0  0
    3.7564    2.3636    0.0000 N   0  0  0  0  0  0  0  0  0  0  0  0
    4.5793    3.4963    0.0000 N   0  0  0  0  0  0  0  0  0  0  0  0
    3.7564    4.6289    0.0000 C   0  0  0  0  0  0  0  0  0  0  0  0
    4.1875    1.0368    0.0000 C   0  0  0  0  0  0  0  0  0  0  0  0
    3.2539    0.0000    0.0000 C   0  0  0  0  0  0  0  0  0  0  0  0
    5.5521    0.7467    0.0000 C   0  0  0  0  0  0  0  0  0  0  0  0
    1.2124    6.2914    0.0000 N   0  0  0  0  0  0  0  0  0  0  0  0
    4.1875    5.9558    0.0000 C   0  0  0  0  0  0  0  0  0  0  0  0
    5.5569    6.2468    0.0000 C   0  0  0  0  0  0  0  0  0  0  0  0
    5.9895    7.5783    0.0000 C   0  0  0  0  0  0  0  0  0  0  0  0
    5.0527    8.6187    0.0000 C   0  0  0  0  0  0  0  0  0  0  0  0
    3.6833    8.3276    0.0000 C   0  0  0  0  0  0  0  0  0  0  0  0
    3.2507    6.9962    0.0000 C   0  0  0  0  0  0  0  0  0  0  0  0
    7.2685    8.1477    0.0000 N   0  0  0  0  0  0  0  0  0  0  0  0
    7.1221    9.5401    0.0000 C   0  0  0  0  0  0  0  0  0  0  0  0
    5.7527    9.8311    0.0000 O   0  0  0  0  0  0  0  0  0  0  0  0
    8.1589   10.4736    0.0000 N   0  0  0  0  0  0  0  0  0  0  0  0
  1  2  2  0  0  0  0
  2  3  1  0  0  0  0
  3  4  2  0  0  0  0
  4  5  1  0  0  0  0
  5  6  2  0  0  0  0
  6  1  1  0  0  0  0
  4  7  1  0  0  0  0
  7  8  1  0  0  0  0
  8  9  2  0  0  0  0
  9  5  1  0  0  0  0
  7 10  1  0  0  0  0
 10 11  1  0  0  0  0
 10 12  1  0  0  0  0
  6 13  1  0  0  0  0
  9 14  1  0  0  0  0
 14 15  2  0  0  0  0
 15 16  1  0  0  0  0
 16 17  2  0  0  0  0
 17 18  1  0  0  0  0
 18 19  2  0  0  0  0
 19 14  1  0  0  0  0
 16 20  1  0  0  0  0
 20 21  2  0  0  0  0
 21 22  1  0  0  0  0
 22 17  1  0  0  0  0
 21 23  1  0  0  0  0
M  END
>  <Mol_ID> (204)
856

>  <Formula> (204)
C15H15N7O

>  <MolWeight> (204)
309.3259

>  <Cat> (204)
S2811 

>  <Name> (204)
INK 128 (MLN0128)

>  <Synonyms> (204)
N/A 

>  <Target> (204)
mTOR 

>  <Form> (204)
Free Base

>  <CAS> (204)
1224844-38-5

>  <URL> (204)
http://www.selleckchem.com/products/ink128.html

$$$$
SCH727965.cdx
csChFnd80/05071909292D

 29 32  0  0  0  0  0  0  0  0999 V2000
    0.0000   10.7827    0.0000 C   0  0  0  0  0  0  0  0  0  0  0  0
    0.0000    9.3827    0.0000 C   0  0  0  0  0  0  0  0  0  0  0  0
    1.2124    8.6827    0.0000 C   0  0  2  0  0  0  0  0  0  0  0  0
    2.4249    9.3827    0.0000 N   0  0  0  0  0  0  0  0  0  0  0  0
    2.4249   10.7827    0.0000 C   0  0  0  0  0  0  0  0  0  0  0  0
    1.2124   11.4827    0.0000 C   0  0  0  0  0  0  0  0  0  0  0  0
    1.2124    7.2875    0.0000 C   0  0  0  0  0  0  0  0  0  0  0  0
    0.0000    6.5875    0.0000 C   0  0  0  0  0  0  0  0  0  0  0  0
    0.0000    5.1875    0.0000 O   0  0  0  0  0  0  0  0  0  0  0  0
    3.6331    8.6851    0.0000 C   0  0  0  0  0  0  0  0  0  0  0  0
    3.6331    7.2851    0.0000 C   0  0  0  0  0  0  0  0  0  0  0  0
    4.8455    6.5851    0.0000 C   0  0  0  0  0  0  0  0  0  0  0  0
    6.0580    7.2851    0.0000 N   0  0  0  0  0  0  0  0  0  0  0  0
    6.0580    8.6851    0.0000 C   0  0  0  0  0  0  0  0  0  0  0  0
    4.8455    9.3851    0.0000 N   0  0  0  0  0  0  0  0  0  0  0  0
    7.3894    6.8525    0.0000 N   0  0  0  0  0  0  0  0  0  0  0  0
    8.2123    7.9851    0.0000 C   0  0  0  0  0  0  0  0  0  0  0  0
    7.3894    9.1177    0.0000 C   0  0  0  0  0  0  0  0  0  0  0  0
    4.8455    5.1900    0.0000 N   0  0  0  0  0  0  0  0  0  0  0  0
    6.0580    4.4899    0.0000 C   0  0  0  0  0  0  0  0  0  0  0  0
    6.0580    3.0899    0.0000 C   0  0  0  0  0  0  0  0  0  0  0  0
    4.8455    2.3899    0.0000 C   0  0  0  0  0  0  0  0  0  0  0  0
    4.8455    0.9899    0.0000 C   0  0  0  0  0  0  0  0  0  0  0  0
    6.0580    0.2899    0.0000 C   0  0  0  0  0  0  0  0  0  0  0  0
    7.2704    0.9899    0.0000 N   0  3  0  0  0  0  0  0  0  0  0  0
    7.2704    2.3899    0.0000 C   0  0  0  0  0  0  0  0  0  0  0  0
    7.8206   10.4446    0.0000 C   0  0  0  0  0  0  0  0  0  0  0  0
    9.1852   10.7346    0.0000 C   0  0  0  0  0  0  0  0  0  0  0  0
    8.2604    0.0000    0.0000 O   0  5  0  0  0  0  0  0  0  0  0  0
  1  2  1  0  0  0  0
  2  3  1  0  0  0  0
  3  4  1  0  0  0  0
  4  5  1  0  0  0  0
  5  6  1  0  0  0  0
  6  1  1  0  0  0  0
  3  7  1  6  0  0  0
  7  8  1  0  0  0  0
  8  9  1  0  0  0  0
  4 10  1  0  0  0  0
 10 11  1  0  0  0  0
 11 12  2  0  0  0  0
 12 13  1  0  0  0  0
 13 14  1  0  0  0  0
 14 15  1  0  0  0  0
 15 10  2  0  0  0  0
 13 16  1  0  0  0  0
 16 17  2  0  0  0  0
 17 18  1  0  0  0  0
 18 14  2  0  0  0  0
 12 19  1  0  0  0  0
 19 20  1  0  0  0  0
 20 21  1  0  0  0  0
 21 22  2  0  0  0  0
 22 23  1  0  0  0  0
 23 24  2  0  0  0  0
 24 25  1  0  0  0  0
 25 26  2  0  0  0  0
 26 21  1  0  0  0  0
 18 27  1  0  0  0  0
 27 28  1  0  0  0  0
 25 29  1  0  0  0  0
M  END
>  <Mol_ID> (205)
858

>  <Formula> (205)
C21H28N6O2

>  <MolWeight> (205)
396.48602

>  <Cat> (205)
S2768

>  <Name> (205)
Dinaciclib (SCH727965)

>  <Synonyms> (205)
N/A 

>  <Target> (205)
CDK

>  <Form> (205)
Free Base

>  <CAS> (205)
779353-01-4

>  <URL> (205)
http://www.selleckchem.com/products/dinaciclib-sch727965.html

$$$$
MK-5108.cdx
csChFnd80/05071909292D

 31 34  0  0  0  0  0  0  0  0999 V2000
    8.4702    2.1000    0.0000 N   0  0  0  0  0  0  0  0  0  0  0  0
    8.4702    0.7000    0.0000 C   0  0  0  0  0  0  0  0  0  0  0  0
    9.6827    0.0000    0.0000 C   0  0  0  0  0  0  0  0  0  0  0  0
   10.8951    0.7000    0.0000 C   0  0  0  0  0  0  0  0  0  0  0  0
   10.8951    2.1000    0.0000 C   0  0  0  0  0  0  0  0  0  0  0  0
    9.6827    2.8000    0.0000 C   0  0  0  0  0  0  0  0  0  0  0  0
    7.2620    0.0024    0.0000 N   0  0  0  0  0  0  0  0  0  0  0  0
    6.0538    0.7000    0.0000 C   0  0  0  0  0  0  0  0  0  0  0  0
    5.9074    2.0923    0.0000 S   0  0  0  0  0  0  0  0  0  0  0  0
    4.5380    2.3834    0.0000 C   0  0  0  0  0  0  0  0  0  0  0  0
    3.8380    1.1710    0.0000 C   0  0  0  0  0  0  0  0  0  0  0  0
    4.7748    0.1306    0.0000 N   0  0  0  0  0  0  0  0  0  0  0  0
    9.6827    4.1951    0.0000 C   0  0  0  0  0  0  0  0  0  0  0  0
    8.4744    4.8927    0.0000 C   0  0  1  0  0  0  0  0  0  0  0  0
    8.4744    6.2927    0.0000 C   0  0  0  0  0  0  0  0  0  0  0  0
    7.2620    6.9927    0.0000 C   0  0  0  0  0  0  0  0  0  0  0  0
    6.0496    6.2927    0.0000 C   0  0  2  0  0  0  0  0  0  0  0  0
    6.0496    4.8927    0.0000 C   0  0  0  0  0  0  0  0  0  0  0  0
    7.2620    4.1927    0.0000 C   0  0  0  0  0  0  0  0  0  0  0  0
    9.6827    5.5903    0.0000 C   0  0  0  0  0  0  0  0  0  0  0  0
    9.6827    6.9903    0.0000 O   0  0  0  0  0  0  0  0  0  0  0  0
   10.8951    4.8903    0.0000 O   0  0  0  0  0  0  0  0  0  0  0  0
    4.8413    6.9903    0.0000 O   0  0  0  0  0  0  0  0  0  0  0  0
    3.6331    6.2927    0.0000 C   0  0  0  0  0  0  0  0  0  0  0  0
    2.4207    6.9927    0.0000 C   0  0  0  0  0  0  0  0  0  0  0  0
    1.2082    6.2927    0.0000 C   0  0  0  0  0  0  0  0  0  0  0  0
    1.2082    4.8927    0.0000 C   0  0  0  0  0  0  0  0  0  0  0  0
    2.4207    4.1927    0.0000 C   0  0  0  0  0  0  0  0  0  0  0  0
    3.6331    4.8927    0.0000 C   0  0  0  0  0  0  0  0  0  0  0  0
    2.4207    8.3879    0.0000 F   0  0  0  0  0  0  0  0  0  0  0  0
    0.0000    6.9903    0.0000 Cl  0  0  0  0  0  0  0  0  0  0  0  0
  1  2  2  0  0  0  0
  2  3  1  0  0  0  0
  3  4  2  0  0  0  0
  4  5  1  0  0  0  0
  5  6  2  0  0  0  0
  6  1  1  0  0  0  0
  2  7  1  0  0  0  0
  7  8  1  0  0  0  0
  8  9  1  0  0  0  0
  9 10  1  0  0  0  0
 10 11  2  0  0  0  0
 11 12  1  0  0  0  0
 12  8  2  0  0  0  0
  6 13  1  0  0  0  0
 14 13  1  6  0  0  0
 14 15  1  0  0  0  0
 15 16  1  0  0  0  0
 16 17  1  0  0  0  0
 17 18  1  0  0  0  0
 18 19  1  0  0  0  0
 19 14  1  0  0  0  0
 14 20  1  1  0  0  0
 17 23  1  6  0  0  0
 23 24  1  0  0  0  0
 24 25  2  0  0  0  0
 25 26  1  0  0  0  0
 26 27  2  0  0  0  0
 27 28  1  0  0  0  0
 28 29  2  0  0  0  0
 29 24  1  0  0  0  0
 25 30  1  0  0  0  0
 26 31  1  0  0  0  0
 20 21  2  0  0  0  0
 20 22  1  0  0  0  0
M  END
>  <Mol_ID> (206)
859

>  <Formula> (206)
C22H21ClFN3O3S

>  <MolWeight> (206)
461.9368432

>  <Cat> (206)
S2770

>  <Name> (206)
MK-5108 (VX-689)

>  <Synonyms> (206)
N/A 

>  <Target> (206)
Aurora Kinase

>  <Form> (206)
Free Base

>  <CAS> (206)
1010085-13-8

>  <URL> (206)
http://www.selleckchem.com/products/mk-5108-vx-689.html

$$$$
CP868569.cdx
csChFnd80/05071909292D

 33 38  0  0  0  0  0  0  0  0999 V2000
    0.0000    7.6903    0.0000 C   0  0  0  0  0  0  0  0  0  0  0  0
    0.0000    6.2903    0.0000 C   0  0  0  0  0  0  0  0  0  0  0  0
    1.2124    5.5903    0.0000 C   0  0  0  0  0  0  0  0  0  0  0  0
    2.4249    6.2903    0.0000 C   0  0  0  0  0  0  0  0  0  0  0  0
    2.4249    7.6903    0.0000 C   0  0  0  0  0  0  0  0  0  0  0  0
    1.2124    8.3903    0.0000 C   0  0  0  0  0  0  0  0  0  0  0  0
    3.6373    5.5903    0.0000 N   0  0  0  0  0  0  0  0  0  0  0  0
    4.8497    6.2903    0.0000 C   0  0  0  0  0  0  0  0  0  0  0  0
    4.8497    7.6903    0.0000 C   0  0  0  0  0  0  0  0  0  0  0  0
    3.6373    8.3903    0.0000 C   0  0  0  0  0  0  0  0  0  0  0  0
    1.2124    4.1951    0.0000 N   0  0  0  0  0  0  0  0  0  0  0  0
    0.0000    3.4951    0.0000 C   0  0  0  0  0  0  0  0  0  0  0  0
    0.0000    2.0951    0.0000 C   0  0  0  0  0  0  0  0  0  0  0  0
    1.2124    1.3951    0.0000 C   0  0  0  0  0  0  0  0  0  0  0  0
    2.4249    2.0951    0.0000 C   0  0  0  0  0  0  0  0  0  0  0  0
    2.4249    3.4951    0.0000 C   0  0  0  0  0  0  0  0  0  0  0  0
    6.0580    5.5927    0.0000 N   0  0  0  0  0  0  0  0  0  0  0  0
    6.2043    4.2004    0.0000 C   0  0  0  0  0  0  0  0  0  0  0  0
    7.5737    3.9093    0.0000 N   0  0  0  0  0  0  0  0  0  0  0  0
    8.2737    5.1217    0.0000 C   0  0  0  0  0  0  0  0  0  0  0  0
    7.3369    6.1621    0.0000 C   0  0  0  0  0  0  0  0  0  0  0  0
    9.6431    5.4128    0.0000 C   0  0  0  0  0  0  0  0  0  0  0  0
   10.0757    6.7443    0.0000 C   0  0  0  0  0  0  0  0  0  0  0  0
    9.1390    7.7847    0.0000 C   0  0  0  0  0  0  0  0  0  0  0  0
    7.7696    7.4936    0.0000 C   0  0  0  0  0  0  0  0  0  0  0  0
   11.4404    7.0344    0.0000 O   0  0  0  0  0  0  0  0  0  0  0  0
   12.3739    5.9976    0.0000 C   0  0  0  0  0  0  0  0  0  0  0  0
   12.3739    4.5976    0.0000 C   0  0  0  0  0  0  0  0  0  0  0  0
   10.9739    4.5976    0.0000 C   0  0  0  0  0  0  0  0  0  0  0  0
   10.9739    3.1976    0.0000 O   0  0  0  0  0  0  0  0  0  0  0  0
   12.3739    3.1976    0.0000 C   0  0  0  0  0  0  0  0  0  0  0  0
   13.7739    4.5976    0.0000 C   0  0  0  0  0  0  0  0  0  0  0  0
    1.2124    0.0000    0.0000 N   0  0  0  0  0  0  0  0  0  0  0  0
  1  2  2  0  0  0  0
  2  3  1  0  0  0  0
  3  4  2  0  0  0  0
  4  5  1  0  0  0  0
  5  6  2  0  0  0  0
  6  1  1  0  0  0  0
  4  7  1  0  0  0  0
  7  8  2  0  0  0  0
  8  9  1  0  0  0  0
  9 10  2  0  0  0  0
 10  5  1  0  0  0  0
  3 11  1  0  0  0  0
 11 12  1  0  0  0  0
 12 13  1  0  0  0  0
 13 14  1  0  0  0  0
 14 15  1  0  0  0  0
 15 16  1  0  0  0  0
 16 11  1  0  0  0  0
  8 17  1  0  0  0  0
 17 18  1  0  0  0  0
 18 19  2  0  0  0  0
 19 20  1  0  0  0  0
 20 21  2  0  0  0  0
 21 17  1  0  0  0  0
 20 22  1  0  0  0  0
 22 23  2  0  0  0  0
 23 24  1  0  0  0  0
 24 25  2  0  0  0  0
 25 21  1  0  0  0  0
 23 26  1  0  0  0  0
 26 27  1  0  0  0  0
 27 28  1  0  0  0  0
 28 29  1  0  0  0  0
 29 30  1  0  0  0  0
 30 31  1  0  0  0  0
 31 28  1  0  0  0  0
 28 32  1  0  0  0  0
 14 33  1  0  0  0  0
M  END
>  <Mol_ID> (207)
860

>  <Formula> (207)
C26H29N5O2

>  <MolWeight> (207)
443.54076

>  <Cat> (207)
S2730 

>  <Name> (207)
Crenolanib (CP-868596)

>  <Synonyms> (207)
N/A 

>  <Target> (207)
PDGFR

>  <Form> (207)
Free Base

>  <CAS> (207)
670220-88-9

>  <URL> (207)
http://www.selleckchem.com/products/crenolanib-cp-868596.html

$$$$
AG-1478.cdx
csChFnd80/05071909292D

 22 24  0  0  0  0  0  0  0  0999 V2000
    2.7951    1.2124    0.0000 C   0  0  0  0  0  0  0  0  0  0  0  0
    4.1951    1.2124    0.0000 C   0  0  0  0  0  0  0  0  0  0  0  0
    4.8951    2.4249    0.0000 C   0  0  0  0  0  0  0  0  0  0  0  0
    4.1951    3.6373    0.0000 C   0  0  0  0  0  0  0  0  0  0  0  0
    2.7951    3.6373    0.0000 C   0  0  0  0  0  0  0  0  0  0  0  0
    2.0951    2.4249    0.0000 C   0  0  0  0  0  0  0  0  0  0  0  0
    4.8951    0.0000    0.0000 N   0  0  0  0  0  0  0  0  0  0  0  0
    6.2951    0.0000    0.0000 C   0  0  0  0  0  0  0  0  0  0  0  0
    6.9951    1.2124    0.0000 N   0  0  0  0  0  0  0  0  0  0  0  0
    6.2951    2.4249    0.0000 C   0  0  0  0  0  0  0  0  0  0  0  0
    6.9927    3.6331    0.0000 N   0  0  0  0  0  0  0  0  0  0  0  0
    8.3927    3.6331    0.0000 C   0  0  0  0  0  0  0  0  0  0  0  0
    0.7000    2.4249    0.0000 O   0  0  0  0  0  0  0  0  0  0  0  0
    2.0976    4.8455    0.0000 O   0  0  0  0  0  0  0  0  0  0  0  0
    0.6976    4.8455    0.0000 C   0  0  0  0  0  0  0  0  0  0  0  0
    0.0000    3.6373    0.0000 C   0  0  0  0  0  0  0  0  0  0  0  0
    9.0927    2.4207    0.0000 C   0  0  0  0  0  0  0  0  0  0  0  0
   10.4927    2.4207    0.0000 C   0  0  0  0  0  0  0  0  0  0  0  0
   11.1927    3.6331    0.0000 C   0  0  0  0  0  0  0  0  0  0  0  0
   10.4927    4.8455    0.0000 C   0  0  0  0  0  0  0  0  0  0  0  0
    9.0927    4.8455    0.0000 C   0  0  0  0  0  0  0  0  0  0  0  0
   11.1903    1.2124    0.0000 Cl  0  0  0  0  0  0  0  0  0  0  0  0
  1  2  2  0  0  0  0
  2  3  1  0  0  0  0
  3  4  2  0  0  0  0
  4  5  1  0  0  0  0
  5  6  2  0  0  0  0
  6  1  1  0  0  0  0
  2  7  1  0  0  0  0
  7  8  2  0  0  0  0
  8  9  1  0  0  0  0
  9 10  2  0  0  0  0
 10  3  1  0  0  0  0
 10 11  1  0  0  0  0
 11 12  1  0  0  0  0
  6 13  1  0  0  0  0
  5 14  1  0  0  0  0
 14 15  1  0  0  0  0
 13 16  1  0  0  0  0
 12 17  2  0  0  0  0
 17 18  1  0  0  0  0
 18 19  2  0  0  0  0
 19 20  1  0  0  0  0
 20 21  2  0  0  0  0
 21 12  1  0  0  0  0
 18 22  1  0  0  0  0
M  END
>  <Mol_ID> (208)
867

>  <Formula> (208)
C16H14ClN3O2

>  <MolWeight> (208)
315.75426

>  <Cat> (208)
S2728

>  <Name> (208)
AG-1478 (Tyrphostin AG-1478)

>  <Synonyms> (208)
Tyrphostin AG-1478

>  <Target> (208)
EGFR

>  <Form> (208)
Free Base

>  <CAS> (208)
153436-53-4

>  <URL> (208)
http://www.selleckchem.com/products/ag-1478-tyrphostin-ag-1478.html

$$$$
PF-04691502.cdx
csChFnd80/05071909292D

 31 34  0  0  0  0  0  0  0  0999 V2000
    1.2082    8.3879    0.0000 N   0  0  0  0  0  0  0  0  0  0  0  0
    1.2082    6.9879    0.0000 C   0  0  0  0  0  0  0  0  0  0  0  0
    2.4207    6.2879    0.0000 N   0  0  0  0  0  0  0  0  0  0  0  0
    3.6331    6.9879    0.0000 C   0  0  0  0  0  0  0  0  0  0  0  0
    3.6331    8.3879    0.0000 C   0  0  0  0  0  0  0  0  0  0  0  0
    2.4207    9.0879    0.0000 C   0  0  0  0  0  0  0  0  0  0  0  0
    4.8455    6.2879    0.0000 N   0  0  0  0  0  0  0  0  0  0  0  0
    6.0580    6.9879    0.0000 C   0  0  0  0  0  0  0  0  0  0  0  0
    6.0580    8.3879    0.0000 C   0  0  0  0  0  0  0  0  0  0  0  0
    4.8455    9.0879    0.0000 C   0  0  0  0  0  0  0  0  0  0  0  0
    7.2662    9.0854    0.0000 C   0  0  0  0  0  0  0  0  0  0  0  0
    7.2662    6.2903    0.0000 O   0  0  0  0  0  0  0  0  0  0  0  0
    8.4786    8.3854    0.0000 C   0  0  0  0  0  0  0  0  0  0  0  0
    9.6911    9.0854    0.0000 C   0  0  0  0  0  0  0  0  0  0  0  0
    9.6911   10.4854    0.0000 C   0  0  0  0  0  0  0  0  0  0  0  0
    8.4786   11.1854    0.0000 N   0  0  0  0  0  0  0  0  0  0  0  0
    7.2662   10.4854    0.0000 C   0  0  0  0  0  0  0  0  0  0  0  0
    2.4207   10.4830    0.0000 C   0  0  0  0  0  0  0  0  0  0  0  0
    0.0000    6.2903    0.0000 N   0  0  0  0  0  0  0  0  0  0  0  0
   10.8993   11.1830    0.0000 O   0  0  0  0  0  0  0  0  0  0  0  0
   12.1075   10.4854    0.0000 C   0  0  0  0  0  0  0  0  0  0  0  0
    4.8455    4.8927    0.0000 C   0  0  1  0  0  0  0  0  0  0  0  0
    3.6331    4.1927    0.0000 C   0  0  0  0  0  0  0  0  0  0  0  0
    3.6331    2.7927    0.0000 C   0  0  0  0  0  0  0  0  0  0  0  0
    4.8455    2.0927    0.0000 C   0  0  1  0  0  0  0  0  0  0  0  0
    6.0580    2.7927    0.0000 C   0  0  0  0  0  0  0  0  0  0  0  0
    6.0580    4.1927    0.0000 C   0  0  0  0  0  0  0  0  0  0  0  0
    4.8455    0.6976    0.0000 O   0  0  0  0  0  0  0  0  0  0  0  0
    3.6373    0.0000    0.0000 C   0  0  0  0  0  0  0  0  0  0  0  0
    2.4291    0.6976    0.0000 C   0  0  0  0  0  0  0  0  0  0  0  0
    1.2209    0.0000    0.0000 O   0  0  0  0  0  0  0  0  0  0  0  0
  1  2  2  0  0  0  0
  2  3  1  0  0  0  0
  3  4  2  0  0  0  0
  4  5  1  0  0  0  0
  5  6  2  0  0  0  0
  6  1  1  0  0  0  0
  4  7  1  0  0  0  0
  7  8  1  0  0  0  0
  8  9  1  0  0  0  0
  9 10  2  0  0  0  0
 10  5  1  0  0  0  0
  9 11  1  0  0  0  0
  8 12  2  0  0  0  0
 11 13  2  0  0  0  0
 13 14  1  0  0  0  0
 14 15  2  0  0  0  0
 15 16  1  0  0  0  0
 16 17  2  0  0  0  0
 17 11  1  0  0  0  0
  6 18  1  0  0  0  0
  2 19  1  0  0  0  0
 15 20  1  0  0  0  0
 20 21  1  0  0  0  0
 22  7  1  6  0  0  0
 22 23  1  0  0  0  0
 23 24  1  0  0  0  0
 24 25  1  0  0  0  0
 25 26  1  0  0  0  0
 26 27  1  0  0  0  0
 27 22  1  0  0  0  0
 25 28  1  1  0  0  0
 28 29  1  0  0  0  0
 29 30  1  0  0  0  0
 30 31  1  0  0  0  0
M  END
>  <Mol_ID> (209)
868

>  <Formula> (209)
C22H27N5O4

>  <MolWeight> (209)
425.48088

>  <Cat> (209)
S2743

>  <Name> (209)
PF-04691502

>  <Synonyms> (209)
N/A

>  <Target> (209)
mTOR, PI3K, Akt

>  <Form> (209)
Free Base

>  <CAS> (209)
1013101-36-4 

>  <URL> (209)
http://www.selleckchem.com/products/pf-04691502.html

$$$$
AMG 458.cdx
csChFnd80/05071909292D

 40 44  0  0  0  0  0  0  0  0999 V2000
    2.9519    3.3541    0.0000 N   0  0  0  0  0  0  0  0  0  0  0  0
    3.2430    4.7235    0.0000 N   0  0  0  0  0  0  0  0  0  0  0  0
    4.6353    4.8698    0.0000 C   0  0  0  0  0  0  0  0  0  0  0  0
    5.2047    3.5909    0.0000 C   0  0  0  0  0  0  0  0  0  0  0  0
    4.1643    2.6541    0.0000 C   0  0  0  0  0  0  0  0  0  0  0  0
    6.5741    3.2998    0.0000 C   0  0  0  0  0  0  0  0  0  0  0  0
    6.9365    1.9475    0.0000 O   0  0  0  0  0  0  0  0  0  0  0  0
    7.5641    4.2897    0.0000 N   0  0  0  0  0  0  0  0  0  0  0  0
    2.3062    5.7639    0.0000 C   0  0  0  0  0  0  0  0  0  0  0  0
    0.9368    5.4728    0.0000 C   0  0  0  0  0  0  0  0  0  0  0  0
    0.0000    6.5132    0.0000 C   0  0  0  0  0  0  0  0  0  0  0  0
    0.4326    7.8447    0.0000 C   0  0  0  0  0  0  0  0  0  0  0  0
    1.8020    8.1358    0.0000 C   0  0  0  0  0  0  0  0  0  0  0  0
    2.7388    7.0954    0.0000 C   0  0  0  0  0  0  0  0  0  0  0  0
    5.3353    6.0823    0.0000 O   0  0  0  0  0  0  0  0  0  0  0  0
    4.3107    1.2618    0.0000 C   0  0  0  0  0  0  0  0  0  0  0  0
    8.9164    3.9274    0.0000 C   0  0  0  0  0  0  0  0  0  0  0  0
    9.9063    4.9174    0.0000 C   0  0  0  0  0  0  0  0  0  0  0  0
   11.2586    4.5550    0.0000 C   0  0  0  0  0  0  0  0  0  0  0  0
   11.6210    3.2027    0.0000 C   0  0  0  0  0  0  0  0  0  0  0  0
   10.6310    2.2128    0.0000 C   0  0  0  0  0  0  0  0  0  0  0  0
    9.2787    2.5751    0.0000 N   0  0  0  0  0  0  0  0  0  0  0  0
   12.9733    2.8404    0.0000 O   0  0  0  0  0  0  0  0  0  0  0  0
   15.9431    5.8102    0.0000 N   0  0  0  0  0  0  0  0  0  0  0  0
   16.3055    4.4579    0.0000 C   0  0  0  0  0  0  0  0  0  0  0  0
   15.3155    3.4680    0.0000 C   0  0  0  0  0  0  0  0  0  0  0  0
   13.9632    3.8303    0.0000 C   0  0  0  0  0  0  0  0  0  0  0  0
   13.6009    5.1826    0.0000 C   0  0  0  0  0  0  0  0  0  0  0  0
   12.2486    5.5450    0.0000 C   0  0  0  0  0  0  0  0  0  0  0  0
   11.8862    6.8972    0.0000 C   0  0  0  0  0  0  0  0  0  0  0  0
   12.8762    7.8872    0.0000 C   0  0  0  0  0  0  0  0  0  0  0  0
   14.2285    7.5249    0.0000 C   0  0  0  0  0  0  0  0  0  0  0  0
   14.5908    6.1726    0.0000 C   0  0  0  0  0  0  0  0  0  0  0  0
   12.5138    9.2395    0.0000 O   0  0  0  0  0  0  0  0  0  0  0  0
   13.5038   10.2294    0.0000 C   0  0  0  0  0  0  0  0  0  0  0  0
    1.6729    2.7847    0.0000 C   0  0  0  0  0  0  0  0  0  0  0  0
    1.5266    1.3923    0.0000 C   0  0  0  0  0  0  0  0  0  0  0  0
    2.9189    1.2460    0.0000 C   0  0  0  0  0  0  0  0  0  0  0  0
    1.3803    0.0000    0.0000 C   0  0  0  0  0  0  0  0  0  0  0  0
    0.1343    1.5387    0.0000 O   0  0  0  0  0  0  0  0  0  0  0  0
  1  2  1  0  0  0  0
  2  3  1  0  0  0  0
  3  4  1  0  0  0  0
  4  5  2  0  0  0  0
  1  5  1  0  0  0  0
  6  7  2  0  0  0  0
  6  8  1  0  0  0  0
  4  6  1  0  0  0  0
  9 10  1  0  0  0  0
 10 11  2  0  0  0  0
 11 12  1  0  0  0  0
 12 13  2  0  0  0  0
 13 14  1  0  0  0  0
  9 14  2  0  0  0  0
  2  9  1  0  0  0  0
  3 15  2  0  0  0  0
  5 16  1  0  0  0  0
 17 18  1  0  0  0  0
 18 19  2  0  0  0  0
 19 20  1  0  0  0  0
 20 21  2  0  0  0  0
 21 22  1  0  0  0  0
 17 22  2  0  0  0  0
 24 25  1  0  0  0  0
 25 26  2  0  0  0  0
 26 27  1  0  0  0  0
 27 28  2  0  0  0  0
 28 29  1  0  0  0  0
 29 30  2  0  0  0  0
 30 31  1  0  0  0  0
 31 32  2  0  0  0  0
 32 33  1  0  0  0  0
 24 33  2  0  0  0  0
 28 33  1  0  0  0  0
 23 27  1  0  0  0  0
 34 35  1  0  0  0  0
 31 34  1  0  0  0  0
 20 23  1  0  0  0  0
  8 17  1  0  0  0  0
 36 37  1  0  0  0  0
 37 38  1  0  0  0  0
 37 39  1  0  0  0  0
 37 40  1  0  0  0  0
  1 36  1  0  0  0  0
M  END
>  <Mol_ID> (210)
937

>  <Formula> (210)
C30H29N5O5

>  <MolWeight> (210)
539.58176

>  <Cat> (210)
S2747

>  <Name> (210)
AMG458

>  <Synonyms> (210)
N/A

>  <Target> (210)
c-Met

>  <Form> (210)
Free Base

>  <CAS> (210)
913376-83-7 

>  <URL> (210)
http://www.selleckchem.com/products/amg458.html

$$$$
Arry-380.cdx
csChFnd80/05071909292D

 41 46  0  0  0  0  0  0  0  0999 V2000
   10.5000    0.0000    0.0000 N   0  0  0  0  0  0  0  0  0  0  0  0
    9.1000    0.0000    0.0000 C   0  0  0  0  0  0  0  0  0  0  0  0
    8.4000    1.2124    0.0000 N   0  0  0  0  0  0  0  0  0  0  0  0
    9.1000    2.4249    0.0000 C   0  0  0  0  0  0  0  0  0  0  0  0
   10.5000    2.4249    0.0000 C   0  0  0  0  0  0  0  0  0  0  0  0
   11.2000    3.6373    0.0000 C   0  0  0  0  0  0  0  0  0  0  0  0
   12.6000    3.6373    0.0000 C   0  0  0  0  0  0  0  0  0  0  0  0
   13.3000    2.4249    0.0000 C   0  0  0  0  0  0  0  0  0  0  0  0
   12.6000    1.2124    0.0000 C   0  0  0  0  0  0  0  0  0  0  0  0
   11.2000    1.2124    0.0000 C   0  0  0  0  0  0  0  0  0  0  0  0
    8.4000    3.6373    0.0000 N   0  0  0  0  0  0  0  0  0  0  0  0
    7.0000    3.6373    0.0000 C   0  0  0  0  0  0  0  0  0  0  0  0
    6.3000    2.4249    0.0000 C   0  0  0  0  0  0  0  0  0  0  0  0
    4.9000    2.4249    0.0000 C   0  0  0  0  0  0  0  0  0  0  0  0
    4.2000    3.6373    0.0000 C   0  0  0  0  0  0  0  0  0  0  0  0
    4.9000    4.8497    0.0000 C   0  0  0  0  0  0  0  0  0  0  0  0
    6.3000    4.8497    0.0000 C   0  0  0  0  0  0  0  0  0  0  0  0
    2.8000    3.6373    0.0000 O   0  0  0  0  0  0  0  0  0  0  0  0
    2.1000    7.2746    0.0000 C   0  0  0  0  0  0  0  0  0  0  0  0
    2.8000    6.0622    0.0000 C   0  0  0  0  0  0  0  0  0  0  0  0
    2.1000    4.8497    0.0000 C   0  0  0  0  0  0  0  0  0  0  0  0
    0.7000    4.8497    0.0000 C   0  0  0  0  0  0  0  0  0  0  0  0
    0.0000    6.0622    0.0000 C   0  0  0  0  0  0  0  0  0  0  0  0
    0.7000    7.2746    0.0000 N   0  0  0  0  0  0  0  0  0  0  0  0
    0.2674    8.6061    0.0000 N   0  0  0  0  0  0  0  0  0  0  0  0
    1.4000    9.4290    0.0000 C   0  0  0  0  0  0  0  0  0  0  0  0
    2.5326    8.6061    0.0000 N   0  0  0  0  0  0  0  0  0  0  0  0
    4.2000    1.2124    0.0000 C   0  0  0  0  0  0  0  0  0  0  0  0
   14.6923    4.9961    0.0000 O   0  0  0  0  0  0  0  0  0  0  0  0
   13.3000    4.8497    0.0000 C   0  0  0  0  0  0  0  0  0  0  0  0
   12.7306    6.1287    0.0000 C   0  0  0  0  0  0  0  0  0  0  0  0
   13.7710    7.0655    0.0000 C   0  0  0  0  0  0  0  0  0  0  0  0
   14.9834    6.3655    0.0000 C   0  0  0  0  0  0  0  0  0  0  0  0
   16.2624    6.9349    0.0000 C   0  0  0  0  0  0  0  0  0  0  0  0
   16.4087    8.3273    0.0000 N   0  0  0  0  0  0  0  0  0  0  0  0
   15.2761    9.1502    0.0000 C   0  0  0  0  0  0  0  0  0  0  0  0
   15.4224   10.5425    0.0000 C   0  0  0  0  0  0  0  0  0  0  0  0
   16.7014   11.1119    0.0000 S   0  0  0  0  0  0  0  0  0  0  0  0
   16.1320   12.3909    0.0000 O   0  0  0  0  0  0  0  0  0  0  0  0
   17.2708    9.8329    0.0000 O   0  0  0  0  0  0  0  0  0  0  0  0
   17.9804   11.6813    0.0000 C   0  0  0  0  0  0  0  0  0  0  0  0
  1  2  1  0  0  0  0
  2  3  2  0  0  0  0
  3  4  1  0  0  0  0
  4  5  2  0  0  0  0
  5  6  1  0  0  0  0
  6  7  2  0  0  0  0
  7  8  1  0  0  0  0
  8  9  2  0  0  0  0
  9 10  1  0  0  0  0
  1 10  2  0  0  0  0
  5 10  1  0  0  0  0
  4 11  1  0  0  0  0
 12 13  1  0  0  0  0
 13 14  2  0  0  0  0
 14 15  1  0  0  0  0
 15 16  2  0  0  0  0
 16 17  1  0  0  0  0
 12 17  2  0  0  0  0
 19 20  1  0  0  0  0
 20 21  2  0  0  0  0
 21 22  1  0  0  0  0
 22 23  2  0  0  0  0
 23 24  1  0  0  0  0
 19 24  1  0  0  0  0
 25 26  2  0  0  0  0
 26 27  1  0  0  0  0
 24 25  1  0  0  0  0
 19 27  2  0  0  0  0
 18 21  1  0  0  0  0
 15 18  1  0  0  0  0
 14 28  1  0  0  0  0
 11 12  1  0  0  0  0
 29 30  1  0  0  0  0
 30 31  2  0  0  0  0
 31 32  1  0  0  0  0
 32 33  2  0  0  0  0
 29 33  1  0  0  0  0
 36 37  1  0  0  0  0
 38 39  2  0  0  0  0
 38 40  2  0  0  0  0
 38 41  1  0  0  0  0
 37 38  1  0  0  0  0
 35 36  1  0  0  0  0
 34 35  1  0  0  0  0
 33 34  1  0  0  0  0
  7 30  1  0  0  0  0
M  END
>  <Mol_ID> (211)
939

>  <Formula> (211)
C29H27N7O4S

>  <MolWeight> (211)
569.63418

>  <Cat> (211)
S2752 

>  <Name> (211)
HER2 Inhibitor 1

>  <Synonyms> (211)
N/A

>  <Target> (211)
HER2, EGFR

>  <Form> (211)
Free Base

>  <CAS> (211)
937265-83-3

>  <URL> (211)
http://www.selleckchem.com/products/arry-380.html

$$$$
PHA-848125.cdx
csChFnd80/05071909292D

 34 38  0  0  0  0  0  0  0  0999 V2000
    4.8387   11.8793    0.0000 C   0  0  0  0  0  0  0  0  0  0  0  0
    4.8387   10.4793    0.0000 C   0  0  0  0  0  0  0  0  0  0  0  0
    6.0512    9.7793    0.0000 C   0  0  0  0  0  0  0  0  0  0  0  0
    7.2636   10.4793    0.0000 C   0  0  0  0  0  0  0  0  0  0  0  0
    7.2636   11.8793    0.0000 C   0  0  0  0  0  0  0  0  0  0  0  0
    6.0512   12.5793    0.0000 C   0  0  0  0  0  0  0  0  0  0  0  0
    8.6380   11.6369    0.0000 C   0  0  0  0  0  0  0  0  0  0  0  0
    7.7409   13.1907    0.0000 C   0  0  0  0  0  0  0  0  0  0  0  0
    3.6301    9.7815    0.0000 N   0  0  0  0  0  0  0  0  0  0  0  0
    6.3422    8.4099    0.0000 N   0  0  0  0  0  0  0  0  0  0  0  0
    7.7346    8.2635    0.0000 N   0  0  0  0  0  0  0  0  0  0  0  0
    8.3040    9.5425    0.0000 C   0  0  0  0  0  0  0  0  0  0  0  0
    5.4084    7.3727    0.0000 C   0  0  0  0  0  0  0  0  0  0  0  0
    9.6691    9.8326    0.0000 C   0  0  0  0  0  0  0  0  0  0  0  0
   10.6559    8.8458    0.0000 N   0  0  0  0  0  0  0  0  0  0  0  0
   10.0303   11.1807    0.0000 O   0  0  0  0  0  0  0  0  0  0  0  0
    3.6301   12.5771    0.0000 C   0  0  0  0  0  0  0  0  0  0  0  0
    2.4215   11.8793    0.0000 N   0  0  0  0  0  0  0  0  0  0  0  0
    2.4210   10.4845    0.0000 C   0  0  0  0  0  0  0  0  0  0  0  0
    1.2124    9.7867    0.0000 N   0  0  0  0  0  0  0  0  0  0  0  0
    1.2124    8.3912    0.0000 C   0  0  0  0  0  0  0  0  0  0  0  0
    0.0000    7.6912    0.0000 C   0  0  0  0  0  0  0  0  0  0  0  0
    0.0000    6.2912    0.0000 C   0  0  0  0  0  0  0  0  0  0  0  0
    1.2124    5.5912    0.0000 C   0  0  0  0  0  0  0  0  0  0  0  0
    2.4249    6.2912    0.0000 C   0  0  0  0  0  0  0  0  0  0  0  0
    2.4249    7.6912    0.0000 C   0  0  0  0  0  0  0  0  0  0  0  0
    1.2124    4.1956    0.0000 N   0  0  0  0  0  0  0  0  0  0  0  0
    0.0000    3.4956    0.0000 C   0  0  0  0  0  0  0  0  0  0  0  0
    0.0000    2.0956    0.0000 C   0  0  0  0  0  0  0  0  0  0  0  0
    1.2124    1.3956    0.0000 N   0  0  0  0  0  0  0  0  0  0  0  0
    2.4249    2.0956    0.0000 C   0  0  0  0  0  0  0  0  0  0  0  0
    2.4249    3.4956    0.0000 C   0  0  0  0  0  0  0  0  0  0  0  0
    1.2124    0.0000    0.0000 C   0  0  0  0  0  0  0  0  0  0  0  0
   10.6559    7.4458    0.0000 C   0  0  0  0  0  0  0  0  0  0  0  0
  2  3  1  0  0  0  0
  3  4  2  0  0  0  0
  4  5  1  0  0  0  0
  5  6  1  0  0  0  0
  6  1  1  0  0  0  0
  5  7  1  0  0  0  0
  5  8  1  0  0  0  0
  2  9  2  0  0  0  0
  3 10  1  0  0  0  0
 10 11  1  0  0  0  0
 11 12  2  0  0  0  0
 12  4  1  0  0  0  0
 10 13  1  0  0  0  0
 12 14  1  0  0  0  0
 14 15  1  0  0  0  0
 14 16  2  0  0  0  0
  1  2  1  0  0  0  0
  1 17  2  0  0  0  0
 17 18  1  0  0  0  0
 18 19  2  0  0  0  0
 19  9  1  0  0  0  0
 19 20  1  0  0  0  0
 20 21  1  0  0  0  0
 21 22  2  0  0  0  0
 22 23  1  0  0  0  0
 23 24  2  0  0  0  0
 24 25  1  0  0  0  0
 25 26  2  0  0  0  0
 26 21  1  0  0  0  0
 24 27  1  0  0  0  0
 27 28  1  0  0  0  0
 28 29  1  0  0  0  0
 29 30  1  0  0  0  0
 30 31  1  0  0  0  0
 31 32  1  0  0  0  0
 32 27  1  0  0  0  0
 30 33  1  0  0  0  0
 15 34  1  0  0  0  0
M  END
>  <Mol_ID> (212)
940

>  <Formula> (212)
C25H32N8O

>  <MolWeight> (212)
460.57458

>  <Cat> (212)
S2751

>  <Name> (212)
PHA-848125

>  <Synonyms> (212)
N/A

>  <Target> (212)
CDK

>  <Form> (212)
Free Base

>  <CAS> (212)
802539-81-7

>  <URL> (212)
http://www.selleckchem.com/products/pha-848125.html

$$$$
AZ628.cdx
csChFnd80/05071909292D

 34 37  0  0  0  0  0  0  0  0999 V2000
    3.6220    2.1000    0.0000 C   0  0  0  0  0  0  0  0  0  0  0  0
    3.6220    0.7000    0.0000 C   0  0  0  0  0  0  0  0  0  0  0  0
    4.8344    0.0000    0.0000 C   0  0  0  0  0  0  0  0  0  0  0  0
    6.0469    0.7000    0.0000 C   0  0  0  0  0  0  0  0  0  0  0  0
    6.0469    2.1000    0.0000 C   0  0  0  0  0  0  0  0  0  0  0  0
    4.8344    2.8000    0.0000 C   0  0  0  0  0  0  0  0  0  0  0  0
    2.4138    2.7976    0.0000 C   0  0  0  0  0  0  0  0  0  0  0  0
    1.2056    2.1000    0.0000 C   0  0  0  0  0  0  0  0  0  0  0  0
    1.7138    4.0100    0.0000 C   0  0  0  0  0  0  0  0  0  0  0  0
    3.1138    4.0100    0.0000 C   0  0  0  0  0  0  0  0  0  0  0  0
    0.0000    1.4049    0.0000 N   0  0  0  0  0  0  0  0  0  0  0  0
    7.2551    2.7976    0.0000 C   0  0  0  0  0  0  0  0  0  0  0  0
    8.4633    2.1000    0.0000 N   0  0  0  0  0  0  0  0  0  0  0  0
    7.2551    4.1927    0.0000 O   0  0  0  0  0  0  0  0  0  0  0  0
    9.6716    2.7976    0.0000 C   0  0  0  0  0  0  0  0  0  0  0  0
   10.8840    2.0976    0.0000 C   0  0  0  0  0  0  0  0  0  0  0  0
   12.0964    2.7976    0.0000 C   0  0  0  0  0  0  0  0  0  0  0  0
   12.0964    4.1976    0.0000 C   0  0  0  0  0  0  0  0  0  0  0  0
   10.8840    4.8976    0.0000 C   0  0  0  0  0  0  0  0  0  0  0  0
    9.6716    4.1976    0.0000 C   0  0  0  0  0  0  0  0  0  0  0  0
   10.8840    6.2927    0.0000 N   0  0  0  0  0  0  0  0  0  0  0  0
   13.3047    4.8951    0.0000 C   0  0  0  0  0  0  0  0  0  0  0  0
   12.0922    6.9903    0.0000 C   0  0  0  0  0  0  0  0  0  0  0  0
   13.3047    6.2903    0.0000 C   0  0  0  0  0  0  0  0  0  0  0  0
   14.5171    6.9903    0.0000 C   0  0  0  0  0  0  0  0  0  0  0  0
   14.5171    8.3903    0.0000 C   0  0  0  0  0  0  0  0  0  0  0  0
   13.3047    9.0903    0.0000 C   0  0  0  0  0  0  0  0  0  0  0  0
   12.0922    8.3903    0.0000 C   0  0  0  0  0  0  0  0  0  0  0  0
   15.7295    6.2903    0.0000 C   0  0  0  0  0  0  0  0  0  0  0  0
   16.9420    6.9903    0.0000 N   0  0  0  0  0  0  0  0  0  0  0  0
   16.9420    8.3903    0.0000 C   0  0  0  0  0  0  0  0  0  0  0  0
   15.7295    9.0903    0.0000 N   0  0  0  0  0  0  0  0  0  0  0  0
   15.7295    4.8951    0.0000 O   0  0  0  0  0  0  0  0  0  0  0  0
   18.1502    6.2927    0.0000 C   0  0  0  0  0  0  0  0  0  0  0  0
  1  2  2  0  0  0  0
  2  3  1  0  0  0  0
  3  4  2  0  0  0  0
  4  5  1  0  0  0  0
  5  6  2  0  0  0  0
  6  1  1  0  0  0  0
  1  7  1  0  0  0  0
  7  8  1  0  0  0  0
  7  9  1  0  0  0  0
  7 10  1  0  0  0  0
  8 11  3  0  0  0  0
  5 12  1  0  0  0  0
 12 13  1  0  0  0  0
 12 14  2  0  0  0  0
 13 15  1  0  0  0  0
 15 16  2  0  0  0  0
 16 17  1  0  0  0  0
 17 18  2  0  0  0  0
 18 19  1  0  0  0  0
 19 20  2  0  0  0  0
 20 15  1  0  0  0  0
 19 21  1  0  0  0  0
 18 22  1  0  0  0  0
 21 23  1  0  0  0  0
 23 24  2  0  0  0  0
 24 25  1  0  0  0  0
 25 26  2  0  0  0  0
 26 27  1  0  0  0  0
 27 28  2  0  0  0  0
 28 23  1  0  0  0  0
 25 29  1  0  0  0  0
 29 30  1  0  0  0  0
 30 31  1  0  0  0  0
 31 32  2  0  0  0  0
 32 26  1  0  0  0  0
 29 33  2  0  0  0  0
 30 34  1  0  0  0  0
M  END
>  <Mol_ID> (213)
944

>  <Formula> (213)
C27H25N5O2

>  <MolWeight> (213)
451.5197

>  <Cat> (213)
S2746

>  <Name> (213)
AZ628

>  <Synonyms> (213)
N/A

>  <Target> (213)
Raf 

>  <Form> (213)
Free Base

>  <CAS> (213)
878739-06-1

>  <URL> (213)
http://www.selleckchem.com/products/az628.html

$$$$
CHIR-98014.cdx
csChFnd80/05071909292D

 33 36  0  0  0  0  0  0  0  0999 V2000
    1.2082    3.4976    0.0000 C   0  0  0  0  0  0  0  0  0  0  0  0
    1.2082    2.0976    0.0000 C   0  0  0  0  0  0  0  0  0  0  0  0
    2.4207    1.3976    0.0000 C   0  0  0  0  0  0  0  0  0  0  0  0
    3.6331    2.0976    0.0000 C   0  0  0  0  0  0  0  0  0  0  0  0
    3.6331    3.4976    0.0000 C   0  0  0  0  0  0  0  0  0  0  0  0
    2.4207    4.1976    0.0000 C   0  0  0  0  0  0  0  0  0  0  0  0
    0.0000    1.4000    0.0000 Cl  0  0  0  0  0  0  0  0  0  0  0  0
    4.8413    1.4000    0.0000 Cl  0  0  0  0  0  0  0  0  0  0  0  0
    4.8413    4.1951    0.0000 C   0  0  0  0  0  0  0  0  0  0  0  0
    6.0538    3.4951    0.0000 N   0  0  0  0  0  0  0  0  0  0  0  0
    7.2662    4.1951    0.0000 C   0  0  0  0  0  0  0  0  0  0  0  0
    7.2662    5.5951    0.0000 N   0  0  0  0  0  0  0  0  0  0  0  0
    6.0538    6.2951    0.0000 C   0  0  0  0  0  0  0  0  0  0  0  0
    4.8413    5.5951    0.0000 C   0  0  0  0  0  0  0  0  0  0  0  0
    8.4744    3.4976    0.0000 N   0  0  0  0  0  0  0  0  0  0  0  0
    9.6827    4.1951    0.0000 C   0  0  0  0  0  0  0  0  0  0  0  0
   10.8909    3.4976    0.0000 C   0  0  0  0  0  0  0  0  0  0  0  0
   12.0991    4.1951    0.0000 N   0  0  0  0  0  0  0  0  0  0  0  0
   13.3073    3.4976    0.0000 C   0  0  0  0  0  0  0  0  0  0  0  0
   13.3073    2.0976    0.0000 C   0  0  0  0  0  0  0  0  0  0  0  0
   14.5198    1.3976    0.0000 C   0  0  0  0  0  0  0  0  0  0  0  0
   15.7322    2.0976    0.0000 C   0  0  0  0  0  0  0  0  0  0  0  0
   15.7322    3.4976    0.0000 C   0  0  0  0  0  0  0  0  0  0  0  0
   14.5198    4.1976    0.0000 N   0  0  0  0  0  0  0  0  0  0  0  0
   16.9404    4.1951    0.0000 N   0  0  0  0  0  0  0  0  0  0  0  0
   16.9404    1.4000    0.0000 N   0  3  0  0  0  0  0  0  0  0  0  0
   16.9404    0.0000    0.0000 O   0  0  0  0  0  0  0  0  0  0  0  0
   18.1529    2.1000    0.0000 O   0  5  0  0  0  0  0  0  0  0  0  0
    3.6331    6.2927    0.0000 N   0  0  0  0  0  0  0  0  0  0  0  0
    3.4868    7.6850    0.0000 C   0  0  0  0  0  0  0  0  0  0  0  0
    2.1174    7.9761    0.0000 C   0  0  0  0  0  0  0  0  0  0  0  0
    1.4174    6.7637    0.0000 N   0  0  0  0  0  0  0  0  0  0  0  0
    2.3541    5.7233    0.0000 C   0  0  0  0  0  0  0  0  0  0  0  0
  1  2  2  0  0  0  0
  2  3  1  0  0  0  0
  3  4  2  0  0  0  0
  4  5  1  0  0  0  0
  5  6  2  0  0  0  0
  6  1  1  0  0  0  0
  2  7  1  0  0  0  0
  4  8  1  0  0  0  0
  5  9  1  0  0  0  0
  9 10  2  0  0  0  0
 10 11  1  0  0  0  0
 11 12  2  0  0  0  0
 12 13  1  0  0  0  0
 13 14  2  0  0  0  0
 14  9  1  0  0  0  0
 11 15  1  0  0  0  0
 15 16  1  0  0  0  0
 16 17  1  0  0  0  0
 17 18  1  0  0  0  0
 18 19  1  0  0  0  0
 19 20  2  0  0  0  0
 20 21  1  0  0  0  0
 21 22  2  0  0  0  0
 22 23  1  0  0  0  0
 23 24  2  0  0  0  0
 24 19  1  0  0  0  0
 23 25  1  0  0  0  0
 22 26  1  0  0  0  0
 14 29  1  0  0  0  0
 29 30  1  0  0  0  0
 30 31  2  0  0  0  0
 31 32  1  0  0  0  0
 32 33  2  0  0  0  0
 33 29  1  0  0  0  0
 26 27  2  0  0  0  0
 26 28  1  0  0  0  0
M  END
>  <Mol_ID> (214)
945

>  <Formula> (214)
C20H17Cl2N9O2

>  <MolWeight> (214)
486.31408

>  <Cat> (214)
S2745

>  <Name> (214)
CHIR-98014

>  <Synonyms> (214)
N/A

>  <Target> (214)
GSK-3

>  <Form> (214)
Free Base

>  <CAS> (214)
252935-94-7

>  <URL> (214)
http://www.selleckchem.com/products/chir-98014.html

$$$$
GW788388(1).cdx
csChFnd80/05071909292D

 32 36  0  0  0  0  0  0  0  0999 V2000
    4.9937    3.1582    0.0000 C   0  0  0  0  0  0  0  0  0  0  0  0
    6.3631    2.8671    0.0000 C   0  0  0  0  0  0  0  0  0  0  0  0
    7.2999    3.9075    0.0000 C   0  0  0  0  0  0  0  0  0  0  0  0
    8.6693    3.6165    0.0000 C   0  0  0  0  0  0  0  0  0  0  0  0
    9.1019    2.2850    0.0000 C   0  0  0  0  0  0  0  0  0  0  0  0
    8.1651    1.2446    0.0000 C   0  0  0  0  0  0  0  0  0  0  0  0
    6.7957    1.5357    0.0000 C   0  0  0  0  0  0  0  0  0  0  0  0
    4.5610    4.4897    0.0000 O   0  0  0  0  0  0  0  0  0  0  0  0
    4.0569    2.1178    0.0000 N   0  0  0  0  0  0  0  0  0  0  0  0
    0.9900    4.1948    0.0000 C   0  0  0  0  0  0  0  0  0  0  0  0
    2.3422    3.8325    0.0000 C   0  0  0  0  0  0  0  0  0  0  0  0
    2.7046    2.4802    0.0000 C   0  0  0  0  0  0  0  0  0  0  0  0
    1.7146    1.4902    0.0000 C   0  0  0  0  0  0  0  0  0  0  0  0
    0.3623    1.8526    0.0000 C   0  0  0  0  0  0  0  0  0  0  0  0
    0.0000    3.2049    0.0000 O   0  0  0  0  0  0  0  0  0  0  0  0
   10.4713    1.9939    0.0000 C   0  0  0  0  0  0  0  0  0  0  0  0
   11.4081    3.0343    0.0000 C   0  0  0  0  0  0  0  0  0  0  0  0
   12.7775    2.7432    0.0000 C   0  0  0  0  0  0  0  0  0  0  0  0
   13.2101    1.4118    0.0000 C   0  0  0  0  0  0  0  0  0  0  0  0
   12.2733    0.3714    0.0000 C   0  0  0  0  0  0  0  0  0  0  0  0
   10.9039    0.6624    0.0000 N   0  0  0  0  0  0  0  0  0  0  0  0
   14.6356    5.8531    0.0000 N   0  0  0  0  0  0  0  0  0  0  0  0
   15.6760    4.9163    0.0000 N   0  0  0  0  0  0  0  0  0  0  0  0
   15.1066    3.6373    0.0000 C   0  0  0  0  0  0  0  0  0  0  0  0
   13.7143    3.7836    0.0000 C   0  0  0  0  0  0  0  0  0  0  0  0
   13.4232    5.1531    0.0000 C   0  0  0  0  0  0  0  0  0  0  0  0
   15.8066    2.4249    0.0000 C   0  0  0  0  0  0  0  0  0  0  0  0
   17.2066    2.4249    0.0000 C   0  0  0  0  0  0  0  0  0  0  0  0
   17.9066    1.2124    0.0000 C   0  0  0  0  0  0  0  0  0  0  0  0
   17.2066    0.0000    0.0000 C   0  0  0  0  0  0  0  0  0  0  0  0
   15.8066    0.0000    0.0000 C   0  0  0  0  0  0  0  0  0  0  0  0
   15.1066    1.2124    0.0000 N   0  0  0  0  0  0  0  0  0  0  0  0
  1  2  1  0  0  0  0
  2  3  1  0  0  0  0
  3  4  2  0  0  0  0
  4  5  1  0  0  0  0
  5  6  2  0  0  0  0
  6  7  1  0  0  0  0
  2  7  2  0  0  0  0
  1  8  2  0  0  0  0
  1  9  1  0  0  0  0
 10 11  1  0  0  0  0
 11 12  1  0  0  0  0
 12 13  1  0  0  0  0
 13 14  1  0  0  0  0
 14 15  1  0  0  0  0
 10 15  1  0  0  0  0
  9 12  1  0  0  0  0
 16 17  1  0  0  0  0
 17 18  2  0  0  0  0
 18 19  1  0  0  0  0
 19 20  2  0  0  0  0
 20 21  1  0  0  0  0
 16 21  2  0  0  0  0
 22 23  1  0  0  0  0
 23 24  2  0  0  0  0
 24 25  1  0  0  0  0
 25 26  2  0  0  0  0
 22 26  1  0  0  0  0
 27 28  1  0  0  0  0
 28 29  2  0  0  0  0
 29 30  1  0  0  0  0
 30 31  2  0  0  0  0
 31 32  1  0  0  0  0
 27 32  2  0  0  0  0
 24 27  1  0  0  0  0
 18 25  1  0  0  0  0
  5 16  1  0  0  0  0
M  END
>  <Mol_ID> (215)
947

>  <Formula> (215)
C25H23N5O2

>  <MolWeight> (215)
425.48242

>  <Cat> (215)
S2750

>  <Name> (215)
GW788388

>  <Synonyms> (215)
N/A

>  <Target> (215)
TGF-beta/Smad

>  <Form> (215)
Free Base

>  <CAS> (215)
452342-67-5

>  <URL> (215)
http://www.selleckchem.com/products/gw788388.html

$$$$
Lapatinib freebase.cdx
csChFnd80/05071909292D

 40 44  0  0  0  0  0  0  0  0999 V2000
   10.0945    8.3903    0.0000 C   0  0  0  0  0  0  0  0  0  0  0  0
   10.0945    6.9903    0.0000 C   0  0  0  0  0  0  0  0  0  0  0  0
   11.3069    6.2903    0.0000 C   0  0  0  0  0  0  0  0  0  0  0  0
   12.5194    6.9903    0.0000 C   0  0  0  0  0  0  0  0  0  0  0  0
   12.5194    8.3903    0.0000 C   0  0  0  0  0  0  0  0  0  0  0  0
   11.3069    9.0903    0.0000 C   0  0  0  0  0  0  0  0  0  0  0  0
   13.7318    6.2903    0.0000 C   0  0  0  0  0  0  0  0  0  0  0  0
   14.9442    6.9903    0.0000 N   0  0  0  0  0  0  0  0  0  0  0  0
   14.9442    8.3903    0.0000 C   0  0  0  0  0  0  0  0  0  0  0  0
   13.7318    9.0903    0.0000 N   0  0  0  0  0  0  0  0  0  0  0  0
   13.7318    4.8951    0.0000 N   0  0  0  0  0  0  0  0  0  0  0  0
   14.9400    4.1976    0.0000 C   0  0  0  0  0  0  0  0  0  0  0  0
   14.9400    2.7976    0.0000 C   0  0  0  0  0  0  0  0  0  0  0  0
   16.1525    2.0976    0.0000 C   0  0  0  0  0  0  0  0  0  0  0  0
   17.3649    2.7976    0.0000 C   0  0  0  0  0  0  0  0  0  0  0  0
   17.3649    4.1976    0.0000 C   0  0  0  0  0  0  0  0  0  0  0  0
   16.1525    4.8976    0.0000 C   0  0  0  0  0  0  0  0  0  0  0  0
   18.5731    4.8951    0.0000 Cl  0  0  0  0  0  0  0  0  0  0  0  0
   18.5731    2.1000    0.0000 O   0  0  0  0  0  0  0  0  0  0  0  0
   19.7856    2.8000    0.0000 C   0  0  0  0  0  0  0  0  0  0  0  0
   20.9980    2.1000    0.0000 C   0  0  0  0  0  0  0  0  0  0  0  0
   20.9980    0.7000    0.0000 C   0  0  0  0  0  0  0  0  0  0  0  0
   22.2104    0.0000    0.0000 C   0  0  0  0  0  0  0  0  0  0  0  0
   23.4229    0.7000    0.0000 C   0  0  0  0  0  0  0  0  0  0  0  0
   23.4229    2.1000    0.0000 C   0  0  0  0  0  0  0  0  0  0  0  0
   22.2104    2.8000    0.0000 C   0  0  0  0  0  0  0  0  0  0  0  0
   24.6311    2.7976    0.0000 F   0  0  0  0  0  0  0  0  0  0  0  0
    8.8863    6.2927    0.0000 C   0  0  0  0  0  0  0  0  0  0  0  0
    7.6073    6.8621    0.0000 O   0  0  0  0  0  0  0  0  0  0  0  0
    6.6705    5.8217    0.0000 C   0  0  0  0  0  0  0  0  0  0  0  0
    7.3705    4.6093    0.0000 C   0  0  0  0  0  0  0  0  0  0  0  0
    8.7399    4.9004    0.0000 C   0  0  0  0  0  0  0  0  0  0  0  0
    5.2830    5.9676    0.0000 C   0  0  0  0  0  0  0  0  0  0  0  0
    4.4630    4.8389    0.0000 N   0  0  0  0  0  0  0  0  0  0  0  0
    3.0755    4.9847    0.0000 C   0  0  0  0  0  0  0  0  0  0  0  0
    2.2296    3.8752    0.0000 C   0  0  0  0  0  0  0  0  0  0  0  0
    0.8459    4.0530    0.0000 S   0  0  0  0  0  0  0  0  0  0  0  0
    0.3080    5.3403    0.0000 O   0  0  0  0  0  0  0  0  0  0  0  0
    0.0000    2.9436    0.0000 C   0  0  0  0  0  0  0  0  0  0  0  0
    1.6917    5.1625    0.0000 O   0  0  0  0  0  0  0  0  0  0  0  0
  1  2  2  0  0  0  0
  2  3  1  0  0  0  0
  3  4  2  0  0  0  0
  4  5  1  0  0  0  0
  5  6  2  0  0  0  0
  6  1  1  0  0  0  0
  4  7  1  0  0  0  0
  7  8  2  0  0  0  0
  8  9  1  0  0  0  0
  9 10  2  0  0  0  0
 10  5  1  0  0  0  0
  7 11  1  0  0  0  0
 11 12  1  0  0  0  0
 12 13  2  0  0  0  0
 13 14  1  0  0  0  0
 14 15  2  0  0  0  0
 15 16  1  0  0  0  0
 16 17  2  0  0  0  0
 17 12  1  0  0  0  0
 16 18  1  0  0  0  0
 15 19  1  0  0  0  0
 19 20  1  0  0  0  0
 20 21  1  0  0  0  0
 21 22  2  0  0  0  0
 22 23  1  0  0  0  0
 23 24  2  0  0  0  0
 24 25  1  0  0  0  0
 25 26  2  0  0  0  0
 26 21  1  0  0  0  0
 25 27  1  0  0  0  0
  2 28  1  0  0  0  0
 28 29  1  0  0  0  0
 29 30  1  0  0  0  0
 30 31  2  0  0  0  0
 31 32  1  0  0  0  0
 32 28  2  0  0  0  0
 30 33  1  0  0  0  0
 33 34  1  0  0  0  0
 34 35  1  0  0  0  0
 35 36  1  0  0  0  0
 36 37  1  0  0  0  0
 37 38  2  0  0  0  0
 37 39  1  0  0  0  0
 37 40  2  0  0  0  0
M  END
>  <Mol_ID> (216)
948

>  <Formula> (216)
C29H26ClFN4O4S

>  <MolWeight> (216)
581.0575432

>  <Cat> (216)
S2111

>  <Name> (216)
Lapatinib

>  <Synonyms> (216)
N/A

>  <Target> (216)
EGFR, HER2

>  <Form> (216)
Free Base

>  <CAS> (216)
231277-92-2

>  <URL> (216)
http://www.selleckchem.com/products/lapatinib.html

$$$$
NVP-BGT226.cdx
csChFnd80/05071909292D

 47 51  0  0  0  0  0  0  0  0999 V2000
   12.0829    7.9531    0.0000 C   0  0  0  0  0  0  0  0  0  0  0  0
   11.3829    9.1655    0.0000 C   0  0  0  0  0  0  0  0  0  0  0  0
   12.0829   10.3779    0.0000 C   0  0  0  0  0  0  0  0  0  0  0  0
   13.4829   10.3779    0.0000 C   0  0  0  0  0  0  0  0  0  0  0  0
   11.3829    6.7406    0.0000 O   0  0  0  0  0  0  0  0  0  0  0  0
   13.4829    7.9531    0.0000 O   0  0  0  0  0  0  0  0  0  0  0  0
   14.1829    9.1655    0.0000 O   0  0  0  0  0  0  0  0  0  0  0  0
   14.1829   11.5904    0.0000 O   0  0  0  0  0  0  0  0  0  0  0  0
    9.6995    0.0000    0.0000 N   0  0  0  0  0  0  0  0  0  0  0  0
   10.9119    0.7000    0.0000 C   0  0  0  0  0  0  0  0  0  0  0  0
   10.9119    2.1000    0.0000 C   0  0  0  0  0  0  0  0  0  0  0  0
    9.6995    2.8000    0.0000 C   0  0  0  0  0  0  0  0  0  0  0  0
    8.4870    2.1000    0.0000 C   0  0  0  0  0  0  0  0  0  0  0  0
    7.2746    2.8000    0.0000 C   0  0  0  0  0  0  0  0  0  0  0  0
    6.0622    2.1000    0.0000 C   0  0  0  0  0  0  0  0  0  0  0  0
    6.0622    0.7000    0.0000 C   0  0  0  0  0  0  0  0  0  0  0  0
    7.2746    0.0000    0.0000 C   0  0  0  0  0  0  0  0  0  0  0  0
    8.4871    0.7000    0.0000 C   0  0  0  0  0  0  0  0  0  0  0  0
   11.3829    4.3157    0.0000 C   0  0  0  0  0  0  0  0  0  0  0  0
   11.9523    3.0368    0.0000 N   0  0  0  0  0  0  0  0  0  0  0  0
    9.9906    4.1694    0.0000 N   0  0  0  0  0  0  0  0  0  0  0  0
   12.0829    5.5282    0.0000 O   0  0  0  0  0  0  0  0  0  0  0  0
    9.0538    5.2098    0.0000 C   0  0  0  0  0  0  0  0  0  0  0  0
    9.4864    6.5413    0.0000 C   0  0  0  0  0  0  0  0  0  0  0  0
    8.5496    7.5817    0.0000 C   0  0  0  0  0  0  0  0  0  0  0  0
    7.1802    7.2906    0.0000 C   0  0  0  0  0  0  0  0  0  0  0  0
    6.7476    5.9591    0.0000 C   0  0  0  0  0  0  0  0  0  0  0  0
    7.6844    4.9187    0.0000 C   0  0  0  0  0  0  0  0  0  0  0  0
    8.9822    8.9132    0.0000 C   0  0  0  0  0  0  0  0  0  0  0  0
    9.4149   10.2446    0.0000 F   0  0  0  0  0  0  0  0  0  0  0  0
    7.6508    9.3458    0.0000 F   0  0  0  0  0  0  0  0  0  0  0  0
   10.3137    8.4805    0.0000 F   0  0  0  0  0  0  0  0  0  0  0  0
    6.2434    8.3310    0.0000 N   0  0  0  0  0  0  0  0  0  0  0  0
    6.6761    9.6625    0.0000 C   0  0  0  0  0  0  0  0  0  0  0  0
    5.7393   10.7029    0.0000 C   0  0  0  0  0  0  0  0  0  0  0  0
    4.3699   10.4118    0.0000 N   0  0  0  0  0  0  0  0  0  0  0  0
    3.9372    9.0803    0.0000 C   0  0  0  0  0  0  0  0  0  0  0  0
    4.8740    8.0399    0.0000 C   0  0  0  0  0  0  0  0  0  0  0  0
   13.3217    2.7457    0.0000 C   0  0  0  0  0  0  0  0  0  0  0  0
    4.8497    4.2000    0.0000 C   0  0  0  0  0  0  0  0  0  0  0  0
    4.8497    2.8000    0.0000 C   0  0  0  0  0  0  0  0  0  0  0  0
    3.6373    2.1000    0.0000 C   0  0  0  0  0  0  0  0  0  0  0  0
    2.4249    2.8000    0.0000 C   0  0  0  0  0  0  0  0  0  0  0  0
    2.4249    4.2000    0.0000 C   0  0  0  0  0  0  0  0  0  0  0  0
    3.6373    4.9000    0.0000 N   0  0  0  0  0  0  0  0  0  0  0  0
    1.2124    4.9000    0.0000 O   0  0  0  0  0  0  0  0  0  0  0  0
    0.0000    4.2000    0.0000 C   0  0  0  0  0  0  0  0  0  0  0  0
  1  2  1  0  0  0  0
  2  3  2  0  0  0  0
  3  4  1  0  0  0  0
  1  5  2  0  0  0  0
  1  6  1  0  0  0  0
  4  7  2  0  0  0  0
  4  8  1  0  0  0  0
  9 10  2  0  0  0  0
 10 11  1  0  0  0  0
 11 12  2  0  0  0  0
 12 13  1  0  0  0  0
 13 14  2  0  0  0  0
 14 15  1  0  0  0  0
 15 16  2  0  0  0  0
 16 17  1  0  0  0  0
 17 18  2  0  0  0  0
  9 18  1  0  0  0  0
 13 18  1  0  0  0  0
 19 20  1  0  0  0  0
 19 21  1  0  0  0  0
 11 20  1  0  0  0  0
 12 21  1  0  0  0  0
 19 22  2  0  0  0  0
 23 24  1  0  0  0  0
 24 25  2  0  0  0  0
 25 26  1  0  0  0  0
 26 27  2  0  0  0  0
 27 28  1  0  0  0  0
 23 28  2  0  0  0  0
 29 30  1  0  0  0  0
 29 31  1  0  0  0  0
 29 32  1  0  0  0  0
 25 29  1  0  0  0  0
 33 34  1  0  0  0  0
 34 35  1  0  0  0  0
 35 36  1  0  0  0  0
 36 37  1  0  0  0  0
 37 38  1  0  0  0  0
 33 38  1  0  0  0  0
 26 33  1  0  0  0  0
 21 23  1  0  0  0  0
 20 39  1  0  0  0  0
 40 41  1  0  0  0  0
 41 42  2  0  0  0  0
 42 43  1  0  0  0  0
 43 44  2  0  0  0  0
 44 45  1  0  0  0  0
 40 45  2  0  0  0  0
 46 47  1  0  0  0  0
 44 46  1  0  0  0  0
 15 41  1  0  0  0  0
M  END
>  <Mol_ID> (217)
950

>  <Formula> (217)
C32H29F3N6O6

>  <MolWeight> (217)
650.6044696

>  <Cat> (217)
S2749

>  <Name> (217)
NVP-BGT226

>  <Synonyms> (217)
N/A 

>  <Target> (217)
PI3K, mTOR

>  <Form> (217)
Maleate

>  <CAS> (217)
1245537-68-1

>  <URL> (217)
http://www.selleckchem.com/products/nvp-bgt226.html

$$$$
YM201636.cdx
csChFnd80/05071909292D

 35 40  0  0  0  0  0  0  0  0999 V2000
    3.5000   13.3368    0.0000 C   0  0  0  0  0  0  0  0  0  0  0  0
    4.2000   12.1244    0.0000 C   0  0  0  0  0  0  0  0  0  0  0  0
    3.5000   10.9119    0.0000 C   0  0  0  0  0  0  0  0  0  0  0  0
    2.1000   10.9119    0.0000 C   0  0  0  0  0  0  0  0  0  0  0  0
    1.4000   12.1244    0.0000 C   0  0  0  0  0  0  0  0  0  0  0  0
    2.1000   13.3368    0.0000 N   0  0  0  0  0  0  0  0  0  0  0  0
    5.6000   12.1244    0.0000 C   0  0  0  0  0  0  0  0  0  0  0  0
    6.3000   13.3368    0.0000 O   0  0  0  0  0  0  0  0  0  0  0  0
    6.3000   10.9119    0.0000 N   0  0  0  0  0  0  0  0  0  0  0  0
    5.6000    9.6995    0.0000 C   0  0  0  0  0  0  0  0  0  0  0  0
    6.3000    8.4870    0.0000 C   0  0  0  0  0  0  0  0  0  0  0  0
    5.6000    7.2746    0.0000 C   0  0  0  0  0  0  0  0  0  0  0  0
    4.2000    7.2746    0.0000 C   0  0  0  0  0  0  0  0  0  0  0  0
    3.5000    8.4870    0.0000 C   0  0  0  0  0  0  0  0  0  0  0  0
    4.2000    9.6995    0.0000 C   0  0  0  0  0  0  0  0  0  0  0  0
    6.3000    6.0622    0.0000 C   0  0  0  0  0  0  0  0  0  0  0  0
    7.7000    6.0622    0.0000 N   0  0  0  0  0  0  0  0  0  0  0  0
    8.4000    4.8497    0.0000 C   0  0  0  0  0  0  0  0  0  0  0  0
    7.7000    3.6373    0.0000 C   0  0  0  0  0  0  0  0  0  0  0  0
    6.3000    3.6373    0.0000 C   0  0  0  0  0  0  0  0  0  0  0  0
    5.6000    4.8497    0.0000 N   0  0  0  0  0  0  0  0  0  0  0  0
    8.6368    2.5969    0.0000 O   0  0  0  0  0  0  0  0  0  0  0  0
    9.7694    4.5587    0.0000 C   0  0  0  0  0  0  0  0  0  0  0  0
    9.9157    3.1663    0.0000 C   0  0  0  0  0  0  0  0  0  0  0  0
   10.9020    5.3816    0.0000 C   0  0  0  0  0  0  0  0  0  0  0  0
   12.1810    4.8121    0.0000 C   0  0  0  0  0  0  0  0  0  0  0  0
   12.3273    3.4198    0.0000 C   0  0  0  0  0  0  0  0  0  0  0  0
   11.1947    2.5969    0.0000 N   0  0  0  0  0  0  0  0  0  0  0  0
    3.5000    1.2124    0.0000 C   0  0  0  0  0  0  0  0  0  0  0  0
    4.2000    2.4249    0.0000 C   0  0  0  0  0  0  0  0  0  0  0  0
    5.6000    2.4249    0.0000 N   0  0  0  0  0  0  0  0  0  0  0  0
    6.3000    1.2124    0.0000 C   0  0  0  0  0  0  0  0  0  0  0  0
    5.6000    0.0000    0.0000 C   0  0  0  0  0  0  0  0  0  0  0  0
    4.2000    0.0000    0.0000 O   0  0  0  0  0  0  0  0  0  0  0  0
    0.0000   12.1244    0.0000 N   0  0  0  0  0  0  0  0  0  0  0  0
  1  2  1  0  0  0  0
  2  3  2  0  0  0  0
  3  4  1  0  0  0  0
  4  5  2  0  0  0  0
  5  6  1  0  0  0  0
  1  6  2  0  0  0  0
  7  8  2  0  0  0  0
  7  9  1  0  0  0  0
  2  7  1  0  0  0  0
 10 11  1  0  0  0  0
 11 12  2  0  0  0  0
 12 13  1  0  0  0  0
 13 14  2  0  0  0  0
 14 15  1  0  0  0  0
 10 15  2  0  0  0  0
 16 17  1  0  0  0  0
 17 18  2  0  0  0  0
 18 19  1  0  0  0  0
 19 20  2  0  0  0  0
 20 21  1  0  0  0  0
 16 21  2  0  0  0  0
 23 24  1  0  0  0  0
 22 24  1  0  0  0  0
 25 26  1  0  0  0  0
 26 27  2  0  0  0  0
 27 28  1  0  0  0  0
 23 25  2  0  0  0  0
 24 28  2  0  0  0  0
 18 23  1  0  0  0  0
 19 22  1  0  0  0  0
 29 30  1  0  0  0  0
 30 31  1  0  0  0  0
 31 32  1  0  0  0  0
 32 33  1  0  0  0  0
 33 34  1  0  0  0  0
 29 34  1  0  0  0  0
 20 31  1  0  0  0  0
 12 16  1  0  0  0  0
  9 10  1  0  0  0  0
  5 35  1  0  0  0  0
M  END
>  <Mol_ID> (218)
952

>  <Formula> (218)
C25H21N7O3

>  <MolWeight> (218)
467.47934

>  <Cat> (218)
S1219

>  <Name> (218)
YM201636

>  <Synonyms> (218)
N/A

>  <Target> (218)
PI3K 

>  <Form> (218)
Free Base

>  <CAS> (218)
371942-69-7

>  <URL> (218)
http://www.selleckchem.com/products/ym201636.html

$$$$
AG1024.cdx
csChFnd80/05071909292D

 18 18  0  0  0  0  0  0  0  0999 V2000
    2.4249    3.3124    0.0000 C   0  0  0  0  0  0  0  0  0  0  0  0
    2.4249    1.9124    0.0000 C   0  0  0  0  0  0  0  0  0  0  0  0
    1.2124    1.2124    0.0000 C   0  0  0  0  0  0  0  0  0  0  0  0
    2.4249    4.7124    0.0000 N   0  0  0  0  0  0  0  0  0  0  0  0
    0.0000    0.5124    0.0000 N   0  0  0  0  0  0  0  0  0  0  0  0
    3.6373    1.2124    0.0000 C   0  0  0  0  0  0  0  0  0  0  0  0
    4.8497    1.9124    0.0000 C   0  0  0  0  0  0  0  0  0  0  0  0
    4.8497    3.3124    0.0000 C   0  0  0  0  0  0  0  0  0  0  0  0
    6.0622    4.0124    0.0000 C   0  0  0  0  0  0  0  0  0  0  0  0
    7.2746    3.3124    0.0000 C   0  0  0  0  0  0  0  0  0  0  0  0
    7.2746    1.9124    0.0000 C   0  0  0  0  0  0  0  0  0  0  0  0
    6.0622    1.2124    0.0000 C   0  0  0  0  0  0  0  0  0  0  0  0
    8.4870    4.0124    0.0000 O   0  0  0  0  0  0  0  0  0  0  0  0
    8.4870    1.2124    0.0000 C   0  0  0  0  0  0  0  0  0  0  0  0
    7.7870    0.0000    0.0000 C   0  0  0  0  0  0  0  0  0  0  0  0
    9.1870    2.4249    0.0000 C   0  0  0  0  0  0  0  0  0  0  0  0
    9.6995    0.5124    0.0000 C   0  0  0  0  0  0  0  0  0  0  0  0
    6.0622    5.4124    0.0000 Br  0  0  0  0  0  0  0  0  0  0  0  0
  1  2  1  0  0  0  0
  2  3  1  0  0  0  0
  1  4  3  0  0  0  0
  3  5  3  0  0  0  0
  7  8  1  0  0  0  0
  8  9  2  0  0  0  0
  9 10  1  0  0  0  0
 10 11  2  0  0  0  0
 11 12  1  0  0  0  0
  7 12  2  0  0  0  0
 10 13  1  0  0  0  0
 14 15  1  0  0  0  0
 14 16  1  0  0  0  0
 14 17  1  0  0  0  0
 11 14  1  0  0  0  0
  9 18  1  0  0  0  0
  6  7  1  0  0  0  0
  2  6  2  0  0  0  0
M  END
>  <Mol_ID> (219)
953

>  <Formula> (219)
C14H13BrN2O

>  <MolWeight> (219)
305.16982

>  <Cat> (219)
S1234

>  <Name> (219)
AG-1024 

>  <Synonyms> (219)
N/A 

>  <Target> (219)
IGF-1R

>  <Form> (219)
Free Base

>  <CAS> (219)
65678-07-1

>  <URL> (219)
http://www.selleckchem.com/products/ag-1024-tyrphostin.html

$$$$
3-Methyladenine.cdx
csChFnd80/05071909292D

 11 12  0  0  0  0  0  0  0  0999 V2000
    3.7564    3.9278    0.0000 N   0  0  0  0  0  0  0  0  0  0  0  0
    4.5793    2.7951    0.0000 C   0  0  0  0  0  0  0  0  0  0  0  0
    3.7564    1.6625    0.0000 N   0  0  0  0  0  0  0  0  0  0  0  0
    2.4249    2.0951    0.0000 C   0  0  0  0  0  0  0  0  0  0  0  0
    1.2124    1.3951    0.0000 N   0  0  0  0  0  0  0  0  0  0  0  0
    0.0000    2.0951    0.0000 C   0  0  0  0  0  0  0  0  0  0  0  0
    0.0000    3.4951    0.0000 N   0  0  0  0  0  0  0  0  0  0  0  0
    1.2124    4.1951    0.0000 C   0  0  0  0  0  0  0  0  0  0  0  0
    2.4249    3.4951    0.0000 C   0  0  0  0  0  0  0  0  0  0  0  0
    1.2124    5.5951    0.0000 N   0  0  0  0  0  0  0  0  0  0  0  0
    1.2124    0.0000    0.0000 C   0  0  0  0  0  0  0  0  0  0  0  0
  1  2  2  0  0  0  0
  2  3  1  0  0  0  0
  3  4  2  0  0  0  0
  4  5  1  0  0  0  0
  5  6  1  0  0  0  0
  6  7  2  0  0  0  0
  7  8  1  0  0  0  0
  8  9  2  0  0  0  0
  1  9  1  0  0  0  0
  4  9  1  0  0  0  0
  8 10  1  0  0  0  0
  5 11  1  0  0  0  0
M  END
>  <Mol_ID> (220)
957

>  <Formula> (220)
C6H7N5

>  <MolWeight> (220)
149.15328

>  <Cat> (220)
S2767

>  <Name> (220)
3-Methyladenine (3-MA)

>  <Synonyms> (220)
3-MA

>  <Target> (220)
PI3K

>  <Form> (220)
Free Base

>  <CAS> (220)
5142-23-4

>  <URL> (220)
http://www.selleckchem.com/products/3-methyladenine.html

$$$$
ARQ-197.cdx
csChFnd80/05071909292D

 30 35  0  0  0  0  0  0  0  0999 V2000
    5.7430    7.3773    0.0000 N   0  0  0  0  0  0  0  0  0  0  0  0
    4.6104    6.5544    0.0000 C   0  0  0  0  0  0  0  0  0  0  0  0
    5.0430    5.2229    0.0000 C   0  0  1  0  0  0  0  0  0  0  0  0
    6.4430    5.2229    0.0000 C   0  0  1  0  0  0  0  0  0  0  0  0
    6.8756    6.5544    0.0000 C   0  0  0  0  0  0  0  0  0  0  0  0
    8.2025    6.9855    0.0000 O   0  0  0  0  0  0  0  0  0  0  0  0
    3.2835    6.9855    0.0000 O   0  0  0  0  0  0  0  0  0  0  0  0
    7.2630    4.0942    0.0000 C   0  0  0  0  0  0  0  0  0  0  0  0
    3.6430    5.2229    0.0000 H   0  0  0  0  0  0  0  0  0  0  0  0
    7.8430    5.2229    0.0000 H   0  0  0  0  0  0  0  0  0  0  0  0
    6.9007    2.7419    0.0000 C   0  0  0  0  0  0  0  0  0  0  0  0
    8.0748    1.9794    0.0000 N   0  0  0  0  0  0  0  0  0  0  0  0
    9.1628    2.8605    0.0000 C   0  0  0  0  0  0  0  0  0  0  0  0
    8.6611    4.1675    0.0000 C   0  0  0  0  0  0  0  0  0  0  0  0
   10.5456    2.6415    0.0000 C   0  0  0  0  0  0  0  0  0  0  0  0
   11.4266    3.7295    0.0000 C   0  0  0  0  0  0  0  0  0  0  0  0
   10.9249    5.0365    0.0000 C   0  0  0  0  0  0  0  0  0  0  0  0
    9.5422    5.2555    0.0000 C   0  0  0  0  0  0  0  0  0  0  0  0
    4.1388    3.9648    0.0000 C   0  0  0  0  0  0  0  0  0  0  0  0
    2.7388    3.9648    0.0000 C   0  0  0  0  0  0  0  0  0  0  0  0
    2.3062    2.6333    0.0000 C   0  0  0  0  0  0  0  0  0  0  0  0
    3.4388    1.8104    0.0000 N   0  0  0  0  0  0  0  0  0  0  0  0
    4.5714    2.6333    0.0000 C   0  0  0  0  0  0  0  0  0  0  0  0
    1.8020    5.0052    0.0000 C   0  0  0  0  0  0  0  0  0  0  0  0
    0.4326    4.7141    0.0000 C   0  0  0  0  0  0  0  0  0  0  0  0
    0.0000    3.3826    0.0000 C   0  0  0  0  0  0  0  0  0  0  0  0
    0.9368    2.3422    0.0000 C   0  0  0  0  0  0  0  0  0  0  0  0
    0.5744    0.9900    0.0000 C   0  0  0  0  0  0  0  0  0  0  0  0
    1.5644    0.0000    0.0000 C   0  0  0  0  0  0  0  0  0  0  0  0
    2.9167    0.3623    0.0000 C   0  0  0  0  0  0  0  0  0  0  0  0
  1  2  1  0  0  0  0
  2  3  1  0  0  0  0
  3  4  1  0  0  0  0
  4  5  1  0  0  0  0
  5  1  1  0  0  0  0
  5  6  2  0  0  0  0
  2  7  2  0  0  0  0
  4  8  1  0  0  0  0
  3  9  1  1  0  0  0
  4 10  1  6  0  0  0
  8 11  2  0  0  0  0
 11 12  1  0  0  0  0
 12 13  1  0  0  0  0
 13 14  2  0  0  0  0
 14  8  1  0  0  0  0
 13 15  1  0  0  0  0
 15 16  2  0  0  0  0
 16 17  1  0  0  0  0
 17 18  2  0  0  0  0
 18 14  1  0  0  0  0
 19 20  1  0  0  0  0
 20 21  2  0  0  0  0
 21 22  1  0  0  0  0
 22 23  1  0  0  0  0
 23 19  2  0  0  0  0
 20 24  1  0  0  0  0
 24 25  2  0  0  0  0
 25 26  1  0  0  0  0
 26 27  2  0  0  0  0
 27 21  1  0  0  0  0
 27 28  1  0  0  0  0
 28 29  1  0  0  0  0
 29 30  1  0  0  0  0
 30 22  1  0  0  0  0
 19  3  1  0  0  0  0
M  END
>  <Mol_ID> (221)
958

>  <Formula> (221)
C23H19N3O2

>  <MolWeight> (221)
369.41586

>  <Cat> (221)
S2753 

>  <Name> (221)
ARQ 197 (Tivantinib)

>  <Synonyms> (221)
N/A 

>  <Target> (221)
c-Met

>  <Form> (221)
Free Base

>  <CAS> (221)
905854-02-6

>  <URL> (221)
http://www.selleckchem.com/products/arq-197.html

$$$$
BX-795.cdx
csChFnd80/05071909292D

 34 37  0  0  0  0  0  0  0  0999 V2000
    2.2157    2.8000    0.0000 N   0  0  0  0  0  0  0  0  0  0  0  0
    0.9368    2.2306    0.0000 C   0  0  0  0  0  0  0  0  0  0  0  0
    0.0000    3.2710    0.0000 C   0  0  0  0  0  0  0  0  0  0  0  0
    0.7000    4.4834    0.0000 C   0  0  0  0  0  0  0  0  0  0  0  0
    2.0694    4.1923    0.0000 C   0  0  0  0  0  0  0  0  0  0  0  0
    3.4282    2.1000    0.0000 C   0  0  0  0  0  0  0  0  0  0  0  0
    3.4282    0.7000    0.0000 O   0  0  0  0  0  0  0  0  0  0  0  0
    4.6406    2.8000    0.0000 N   0  0  0  0  0  0  0  0  0  0  0  0
    5.8531    2.1000    0.0000 C   0  0  0  0  0  0  0  0  0  0  0  0
    7.0655    2.8000    0.0000 C   0  0  0  0  0  0  0  0  0  0  0  0
    8.2779    2.1000    0.0000 C   0  0  0  0  0  0  0  0  0  0  0  0
    8.2779    0.7000    0.0000 C   0  0  0  0  0  0  0  0  0  0  0  0
    7.0655    0.0000    0.0000 C   0  0  0  0  0  0  0  0  0  0  0  0
    5.8531    0.7000    0.0000 C   0  0  0  0  0  0  0  0  0  0  0  0
    9.4904    2.8000    0.0000 N   0  0  0  0  0  0  0  0  0  0  0  0
   10.7028    2.1000    0.0000 C   0  0  0  0  0  0  0  0  0  0  0  0
   11.9152    2.8000    0.0000 N   0  0  0  0  0  0  0  0  0  0  0  0
   13.1277    2.1000    0.0000 C   0  0  0  0  0  0  0  0  0  0  0  0
   13.1277    0.7000    0.0000 C   0  0  0  0  0  0  0  0  0  0  0  0
   11.9152    0.0000    0.0000 C   0  0  0  0  0  0  0  0  0  0  0  0
   10.7028    0.7000    0.0000 N   0  0  0  0  0  0  0  0  0  0  0  0
   14.3401    2.8000    0.0000 N   0  0  0  0  0  0  0  0  0  0  0  0
   15.5525    2.1000    0.0000 C   0  0  0  0  0  0  0  0  0  0  0  0
   16.7650    2.8000    0.0000 C   0  0  0  0  0  0  0  0  0  0  0  0
   14.3401    0.0000    0.0000 I   0  0  0  0  0  0  0  0  0  0  0  0
   17.9732    2.1024    0.0000 C   0  0  0  0  0  0  0  0  0  0  0  0
   19.1814    2.8000    0.0000 N   0  0  0  0  0  0  0  0  0  0  0  0
   20.3896    2.1024    0.0000 C   0  0  0  0  0  0  0  0  0  0  0  0
   21.5979    2.8000    0.0000 C   0  0  0  0  0  0  0  0  0  0  0  0
   22.8768    2.2306    0.0000 C   0  0  0  0  0  0  0  0  0  0  0  0
   23.8136    3.2710    0.0000 C   0  0  0  0  0  0  0  0  0  0  0  0
   23.1136    4.4834    0.0000 C   0  0  0  0  0  0  0  0  0  0  0  0
   21.7442    4.1923    0.0000 S   0  0  0  0  0  0  0  0  0  0  0  0
   20.3896    0.7073    0.0000 O   0  0  0  0  0  0  0  0  0  0  0  0
  1  2  1  0  0  0  0
  2  3  1  0  0  0  0
  3  4  1  0  0  0  0
  4  5  1  0  0  0  0
  1  5  1  0  0  0  0
  6  7  2  0  0  0  0
  6  8  1  0  0  0  0
  1  6  1  0  0  0  0
  9 10  1  0  0  0  0
 10 11  2  0  0  0  0
 11 12  1  0  0  0  0
 12 13  2  0  0  0  0
 13 14  1  0  0  0  0
  9 14  2  0  0  0  0
 16 17  1  0  0  0  0
 17 18  2  0  0  0  0
 18 19  1  0  0  0  0
 19 20  2  0  0  0  0
 20 21  1  0  0  0  0
 16 21  2  0  0  0  0
 23 24  1  0  0  0  0
 22 23  1  0  0  0  0
 18 22  1  0  0  0  0
 19 25  1  0  0  0  0
 15 16  1  0  0  0  0
 11 15  1  0  0  0  0
  8  9  1  0  0  0  0
 24 26  1  0  0  0  0
 26 27  1  0  0  0  0
 27 28  1  0  0  0  0
 28 29  1  0  0  0  0
 29 30  2  0  0  0  0
 30 31  1  0  0  0  0
 31 32  2  0  0  0  0
 32 33  1  0  0  0  0
 33 29  1  0  0  0  0
 28 34  2  0  0  0  0
M  END
>  <Mol_ID> (222)
959

>  <Formula> (222)
C23H26IN7O2S

>  <MolWeight> (222)
591.46771

>  <Cat> (222)
S1274 

>  <Name> (222)
BX-795

>  <Synonyms> (222)
N/A

>  <Target> (222)
PDK-1, IKK

>  <Form> (222)
Free Base

>  <CAS> (222)
702675-74-9

>  <URL> (222)
http://www.selleckchem.com/products/bx-795.html

$$$$
BX-912.cdx
csChFnd80/05071909292D

 30 33  0  0  0  0  0  0  0  0999 V2000
    2.2157    2.8000    0.0000 N   0  0  0  0  0  0  0  0  0  0  0  0
    0.9368    2.2306    0.0000 C   0  0  0  0  0  0  0  0  0  0  0  0
    0.0000    3.2710    0.0000 C   0  0  0  0  0  0  0  0  0  0  0  0
    0.7000    4.4834    0.0000 C   0  0  0  0  0  0  0  0  0  0  0  0
    2.0694    4.1923    0.0000 C   0  0  0  0  0  0  0  0  0  0  0  0
    3.4282    2.1000    0.0000 C   0  0  0  0  0  0  0  0  0  0  0  0
    3.4282    0.7000    0.0000 O   0  0  0  0  0  0  0  0  0  0  0  0
    4.6406    2.8000    0.0000 N   0  0  0  0  0  0  0  0  0  0  0  0
    5.8531    2.1000    0.0000 C   0  0  0  0  0  0  0  0  0  0  0  0
    7.0655    2.8000    0.0000 C   0  0  0  0  0  0  0  0  0  0  0  0
    8.2779    2.1000    0.0000 C   0  0  0  0  0  0  0  0  0  0  0  0
    8.2779    0.7000    0.0000 C   0  0  0  0  0  0  0  0  0  0  0  0
    7.0655    0.0000    0.0000 C   0  0  0  0  0  0  0  0  0  0  0  0
    5.8531    0.7000    0.0000 C   0  0  0  0  0  0  0  0  0  0  0  0
    9.4904    2.8000    0.0000 N   0  0  0  0  0  0  0  0  0  0  0  0
   10.7028    2.1000    0.0000 C   0  0  0  0  0  0  0  0  0  0  0  0
   11.9152    2.8000    0.0000 N   0  0  0  0  0  0  0  0  0  0  0  0
   13.1277    2.1000    0.0000 C   0  0  0  0  0  0  0  0  0  0  0  0
   13.1277    0.7000    0.0000 C   0  0  0  0  0  0  0  0  0  0  0  0
   11.9152    0.0000    0.0000 C   0  0  0  0  0  0  0  0  0  0  0  0
   10.7028    0.7000    0.0000 N   0  0  0  0  0  0  0  0  0  0  0  0
   14.3401    2.8000    0.0000 N   0  0  0  0  0  0  0  0  0  0  0  0
   15.5525    2.1000    0.0000 C   0  0  0  0  0  0  0  0  0  0  0  0
   16.7650    2.8000    0.0000 C   0  0  0  0  0  0  0  0  0  0  0  0
   20.1932    1.6290    0.0000 C   0  0  0  0  0  0  0  0  0  0  0  0
   19.4932    0.4166    0.0000 N   0  0  0  0  0  0  0  0  0  0  0  0
   18.1237    0.7077    0.0000 C   0  0  0  0  0  0  0  0  0  0  0  0
   17.9774    2.1000    0.0000 C   0  0  0  0  0  0  0  0  0  0  0  0
   19.2564    2.6694    0.0000 N   0  0  0  0  0  0  0  0  0  0  0  0
   14.3401    0.0000    0.0000 Br  0  0  0  0  0  0  0  0  0  0  0  0
  1  2  1  0  0  0  0
  2  3  1  0  0  0  0
  3  4  1  0  0  0  0
  4  5  1  0  0  0  0
  1  5  1  0  0  0  0
  6  7  2  0  0  0  0
  6  8  1  0  0  0  0
  1  6  1  0  0  0  0
  9 10  1  0  0  0  0
 10 11  2  0  0  0  0
 11 12  1  0  0  0  0
 12 13  2  0  0  0  0
 13 14  1  0  0  0  0
  9 14  2  0  0  0  0
 16 17  1  0  0  0  0
 17 18  2  0  0  0  0
 18 19  1  0  0  0  0
 19 20  2  0  0  0  0
 20 21  1  0  0  0  0
 16 21  2  0  0  0  0
 23 24  1  0  0  0  0
 25 26  2  0  0  0  0
 26 27  1  0  0  0  0
 27 28  2  0  0  0  0
 28 29  1  0  0  0  0
 25 29  1  0  0  0  0
 24 28  1  0  0  0  0
 22 23  1  0  0  0  0
 18 22  1  0  0  0  0
 19 30  1  0  0  0  0
 15 16  1  0  0  0  0
 11 15  1  0  0  0  0
  8  9  1  0  0  0  0
M  END
>  <Mol_ID> (223)
960

>  <Formula> (223)
C20H23BrN8O

>  <MolWeight> (223)
471.35362

>  <Cat> (223)
S1275 

>  <Name> (223)
BX-912

>  <Synonyms> (223)
N/A

>  <Target> (223)
PDK-1 

>  <Form> (223)
Free Base

>  <CAS> (223)
702674-56-4

>  <URL> (223)
http://www.selleckchem.com/products/bx-912.html

$$$$
NVP-BVU972.cdx
csChFnd80/05071909292D

 26 30  0  0  0  0  0  0  0  0999 V2000
    3.4240    5.0721    0.0000 C   0  0  0  0  0  0  0  0  0  0  0  0
    3.4240    3.6721    0.0000 C   0  0  0  0  0  0  0  0  0  0  0  0
    4.6364    2.9721    0.0000 N   0  0  0  0  0  0  0  0  0  0  0  0
    5.8488    3.6721    0.0000 N   0  0  0  0  0  0  0  0  0  0  0  0
    5.8488    5.0721    0.0000 C   0  0  0  0  0  0  0  0  0  0  0  0
    4.6364    5.7721    0.0000 C   0  0  0  0  0  0  0  0  0  0  0  0
    7.1803    3.2395    0.0000 C   0  0  0  0  0  0  0  0  0  0  0  0
    8.0032    4.3721    0.0000 C   0  0  0  0  0  0  0  0  0  0  0  0
    7.1803    5.5047    0.0000 N   0  0  0  0  0  0  0  0  0  0  0  0
    2.2157    2.9745    0.0000 C   0  0  0  0  0  0  0  0  0  0  0  0
    0.9368    3.5440    0.0000 C   0  0  0  0  0  0  0  0  0  0  0  0
    0.0000    2.5036    0.0000 N   0  0  0  0  0  0  0  0  0  0  0  0
    0.7000    1.2911    0.0000 N   0  0  0  0  0  0  0  0  0  0  0  0
    2.0694    1.5822    0.0000 C   0  0  0  0  0  0  0  0  0  0  0  0
    0.1325    0.0166    0.0000 C   0  0  0  0  0  0  0  0  0  0  0  0
    7.6114    1.9126    0.0000 C   0  0  0  0  0  0  0  0  0  0  0  0
    8.9761    1.6226    0.0000 C   0  0  0  0  0  0  0  0  0  0  0  0
    9.4087    0.2911    0.0000 C   0  0  0  0  0  0  0  0  0  0  0  0
   10.7781    0.0000    0.0000 C   0  0  0  0  0  0  0  0  0  0  0  0
   11.7149    1.0404    0.0000 C   0  0  0  0  0  0  0  0  0  0  0  0
   11.2823    2.3719    0.0000 C   0  0  0  0  0  0  0  0  0  0  0  0
    9.9129    2.6630    0.0000 C   0  0  0  0  0  0  0  0  0  0  0  0
   13.0843    0.7493    0.0000 N   0  0  0  0  0  0  0  0  0  0  0  0
   14.0211    1.7897    0.0000 C   0  0  0  0  0  0  0  0  0  0  0  0
   13.5885    3.1212    0.0000 C   0  0  0  0  0  0  0  0  0  0  0  0
   12.2191    3.4123    0.0000 C   0  0  0  0  0  0  0  0  0  0  0  0
  1  2  1  0  0  0  0
  2  3  2  0  0  0  0
  3  4  1  0  0  0  0
  4  5  1  0  0  0  0
  5  6  1  0  0  0  0
  6  1  2  0  0  0  0
  4  7  1  0  0  0  0
  7  8  2  0  0  0  0
  8  9  1  0  0  0  0
  9  5  2  0  0  0  0
  2 10  1  0  0  0  0
 10 11  1  0  0  0  0
 11 12  2  0  0  0  0
 12 13  1  0  0  0  0
 13 14  1  0  0  0  0
 14 10  2  0  0  0  0
 13 15  1  0  0  0  0
  7 16  1  0  0  0  0
 16 17  1  0  0  0  0
 17 18  2  0  0  0  0
 18 19  1  0  0  0  0
 19 20  2  0  0  0  0
 20 21  1  0  0  0  0
 21 22  2  0  0  0  0
 22 17  1  0  0  0  0
 20 23  1  0  0  0  0
 23 24  2  0  0  0  0
 24 25  1  0  0  0  0
 25 26  2  0  0  0  0
 26 21  1  0  0  0  0
M  END
>  <Mol_ID> (224)
962

>  <Formula> (224)
C20H16N6

>  <MolWeight> (224)
340.38124

>  <Cat> (224)
S2761

>  <Name> (224)
NVP-BVU972

>  <Synonyms> (224)
N/A

>  <Target> (224)
c-Met

>  <Form> (224)
Free Base

>  <CAS> (224)
1185763-69-2

>  <URL> (224)
http://www.selleckchem.com/products/nvp-bvu972.html

$$$$
CUDC-907.cdx
csChFnd80/05071909292D

 36 40  0  0  0  0  0  0  0  0999 V2000
    4.1879    2.4696    0.0000 C   0  0  0  0  0  0  0  0  0  0  0  0
    5.5879    2.4696    0.0000 N   0  0  0  0  0  0  0  0  0  0  0  0
    6.2879    3.6821    0.0000 C   0  0  0  0  0  0  0  0  0  0  0  0
    5.5879    4.8945    0.0000 N   0  0  0  0  0  0  0  0  0  0  0  0
    4.1879    4.8945    0.0000 C   0  0  0  0  0  0  0  0  0  0  0  0
    3.4878    3.6821    0.0000 C   0  0  0  0  0  0  0  0  0  0  0  0
    2.0927    3.6821    0.0000 C   0  0  0  0  0  0  0  0  0  0  0  0
    1.3951    4.8903    0.0000 N   0  0  0  0  0  0  0  0  0  0  0  0
    1.3951    2.4738    0.0000 O   0  0  0  0  0  0  0  0  0  0  0  0
    7.6830    3.6821    0.0000 N   0  0  0  0  0  0  0  0  0  0  0  0
    8.3806    2.4738    0.0000 C   0  0  0  0  0  0  0  0  0  0  0  0
    8.3806    4.8903    0.0000 C   0  0  0  0  0  0  0  0  0  0  0  0
    9.7757    4.8903    0.0000 C   0  0  0  0  0  0  0  0  0  0  0  0
   10.5986    3.7577    0.0000 C   0  0  0  0  0  0  0  0  0  0  0  0
   11.9301    4.1903    0.0000 C   0  0  0  0  0  0  0  0  0  0  0  0
   11.9301    5.5903    0.0000 C   0  0  0  0  0  0  0  0  0  0  0  0
   10.5986    6.0229    0.0000 S   0  0  0  0  0  0  0  0  0  0  0  0
   13.1425    3.4903    0.0000 N   0  0  0  0  0  0  0  0  0  0  0  0
   14.3550    4.1903    0.0000 C   0  0  0  0  0  0  0  0  0  0  0  0
   14.3550    5.5903    0.0000 N   0  0  0  0  0  0  0  0  0  0  0  0
   13.1425    6.2903    0.0000 C   0  0  0  0  0  0  0  0  0  0  0  0
   13.1425    7.6854    0.0000 N   0  0  0  0  0  0  0  0  0  0  0  0
   15.5632    3.4927    0.0000 C   0  0  0  0  0  0  0  0  0  0  0  0
   15.5632    2.0927    0.0000 C   0  0  0  0  0  0  0  0  0  0  0  0
   16.7756    1.3927    0.0000 C   0  0  0  0  0  0  0  0  0  0  0  0
   17.9880    2.0927    0.0000 C   0  0  0  0  0  0  0  0  0  0  0  0
   17.9880    3.4927    0.0000 N   0  0  0  0  0  0  0  0  0  0  0  0
   16.7756    4.1927    0.0000 C   0  0  0  0  0  0  0  0  0  0  0  0
   19.1963    1.3951    0.0000 O   0  0  0  0  0  0  0  0  0  0  0  0
   19.1963    0.0000    0.0000 C   0  0  0  0  0  0  0  0  0  0  0  0
   14.3550    8.3854    0.0000 C   0  0  0  0  0  0  0  0  0  0  0  0
   14.3550    9.7854    0.0000 C   0  0  0  0  0  0  0  0  0  0  0  0
   13.1425   10.4854    0.0000 O   0  0  0  0  0  0  0  0  0  0  0  0
   11.9301    9.7854    0.0000 C   0  0  0  0  0  0  0  0  0  0  0  0
   11.9301    8.3854    0.0000 C   0  0  0  0  0  0  0  0  0  0  0  0
    0.0000    4.8903    0.0000 O   0  0  0  0  0  0  0  0  0  0  0  0
  1  2  2  0  0  0  0
  2  3  1  0  0  0  0
  3  4  2  0  0  0  0
  4  5  1  0  0  0  0
  5  6  2  0  0  0  0
  6  1  1  0  0  0  0
  6  7  1  0  0  0  0
  7  8  1  0  0  0  0
  7  9  2  0  0  0  0
  3 10  1  0  0  0  0
 10 11  1  0  0  0  0
 10 12  1  0  0  0  0
 12 13  1  0  0  0  0
 13 14  2  0  0  0  0
 14 15  1  0  0  0  0
 15 16  2  0  0  0  0
 16 17  1  0  0  0  0
 17 13  1  0  0  0  0
 15 18  1  0  0  0  0
 18 19  2  0  0  0  0
 19 20  1  0  0  0  0
 20 21  2  0  0  0  0
 21 16  1  0  0  0  0
 21 22  1  0  0  0  0
 19 23  1  0  0  0  0
 23 24  2  0  0  0  0
 24 25  1  0  0  0  0
 25 26  2  0  0  0  0
 26 27  1  0  0  0  0
 27 28  2  0  0  0  0
 28 23  1  0  0  0  0
 26 29  1  0  0  0  0
 29 30  1  0  0  0  0
 22 31  1  0  0  0  0
 31 32  1  0  0  0  0
 32 33  1  0  0  0  0
 33 34  1  0  0  0  0
 34 35  1  0  0  0  0
 35 22  1  0  0  0  0
  8 36  1  0  0  0  0
M  END
>  <Mol_ID> (225)
968

>  <Formula> (225)
C23H24N8O4S

>  <MolWeight> (225)
508.55286

>  <Cat> (225)
S2759 

>  <Name> (225)
CUDC-907

>  <Synonyms> (225)
N/A

>  <Target> (225)
HDAC, PI3K

>  <Form> (225)
Free Base

>  <CAS> (225)
1339928-25-4

>  <URL> (225)
http://www.selleckchem.com/products/cudc-907.html

$$$$

csChFnd80/05071909292D

 41 43  0  0  0  0  0  0  0  0999 V2000
    3.6373   11.6368    0.0000 N   0  0  0  0  0  0  0  0  0  0  0  0
    4.8497   10.9368    0.0000 C   0  0  0  0  0  0  0  0  0  0  0  0
    4.8497    9.5368    0.0000 C   0  0  0  0  0  0  0  0  0  0  0  0
    3.6373    8.8368    0.0000 C   0  0  0  0  0  0  0  0  0  0  0  0
    2.4249    9.5368    0.0000 C   0  0  0  0  0  0  0  0  0  0  0  0
    1.2124    8.8368    0.0000 C   0  0  0  0  0  0  0  0  0  0  0  0
    0.0000    9.5368    0.0000 C   0  0  0  0  0  0  0  0  0  0  0  0
    0.0000   10.9368    0.0000 C   0  0  0  0  0  0  0  0  0  0  0  0
    1.2124   11.6368    0.0000 C   0  0  0  0  0  0  0  0  0  0  0  0
    2.4249   10.9368    0.0000 C   0  0  0  0  0  0  0  0  0  0  0  0
    6.0622   11.6368    0.0000 O   0  0  0  0  0  0  0  0  0  0  0  0
    6.0622    8.8368    0.0000 C   0  0  0  0  0  0  0  0  0  0  0  0
    6.2085    7.4444    0.0000 N   0  0  0  0  0  0  0  0  0  0  0  0
    7.5779    7.1533    0.0000 C   0  0  0  0  0  0  0  0  0  0  0  0
    8.2779    8.3658    0.0000 C   0  0  0  0  0  0  0  0  0  0  0  0
    7.3411    9.4062    0.0000 N   0  0  0  0  0  0  0  0  0  0  0  0
    8.2779    5.9409    0.0000 C   0  0  0  0  0  0  0  0  0  0  0  0
    9.6779    5.9409    0.0000 C   0  0  0  0  0  0  0  0  0  0  0  0
   10.3779    7.1533    0.0000 C   0  0  0  0  0  0  0  0  0  0  0  0
    9.6779    8.3658    0.0000 C   0  0  0  0  0  0  0  0  0  0  0  0
   11.7779    7.1533    0.0000 N   0  0  0  0  0  0  0  0  0  0  0  0
   12.4779    8.3658    0.0000 C   0  0  0  0  0  0  0  0  0  0  0  0
   13.8779    8.3658    0.0000 C   0  0  0  0  0  0  0  0  0  0  0  0
   14.5779    7.1533    0.0000 N   0  0  0  0  0  0  0  0  0  0  0  0
   13.8779    5.9409    0.0000 C   0  0  0  0  0  0  0  0  0  0  0  0
   12.4779    5.9409    0.0000 C   0  0  0  0  0  0  0  0  0  0  0  0
   15.9779    7.1533    0.0000 C   0  0  0  0  0  0  0  0  0  0  0  0
    1.2124    7.4368    0.0000 F   0  0  0  0  0  0  0  0  0  0  0  0
    3.6373    7.4368    0.0000 N   0  0  0  0  0  0  0  0  0  0  0  0
    6.1690    8.3196    0.0000 C   0  0  0  0  0  0  0  0  0  0  0  0
    7.3805    9.0191    0.0000 C   0  0  3  0  0  0  0  0  0  0  0  0
    8.5921    8.3196    0.0000 C   0  0  0  0  0  0  0  0  0  0  0  0
    9.8037    9.0191    0.0000 O   0  0  0  0  0  0  0  0  0  0  0  0
    8.5921    6.9206    0.0000 O   0  0  0  0  0  0  0  0  0  0  0  0
    7.3805   10.4181    0.0000 O   0  0  0  0  0  0  0  0  0  0  0  0
    6.1690    3.5596    0.0000 C   0  0  0  0  0  0  0  0  0  0  0  0
    7.3805    4.2591    0.0000 C   0  0  3  0  0  0  0  0  0  0  0  0
    8.5921    3.5596    0.0000 C   0  0  0  0  0  0  0  0  0  0  0  0
    9.8037    4.2591    0.0000 O   0  0  0  0  0  0  0  0  0  0  0  0
    8.5921    2.1606    0.0000 O   0  0  0  0  0  0  0  0  0  0  0  0
    7.3805    5.6581    0.0000 O   0  0  0  0  0  0  0  0  0  0  0  0
  1  2  1  0  0  0  0
  2  3  1  0  0  0  0
  3  4  2  0  0  0  0
  4  5  1  0  0  0  0
  5  6  1  0  0  0  0
  6  7  2  0  0  0  0
  7  8  1  0  0  0  0
  8  9  2  0  0  0  0
  9 10  1  0  0  0  0
  1 10  1  0  0  0  0
  5 10  2  0  0  0  0
  2 11  2  0  0  0  0
 12 13  2  0  0  0  0
 13 14  1  0  0  0  0
 14 15  1  0  0  0  0
 15 16  1  0  0  0  0
 12 16  1  0  0  0  0
 17 18  1  0  0  0  0
 18 19  2  0  0  0  0
 19 20  1  0  0  0  0
 15 20  2  0  0  0  0
 14 17  2  0  0  0  0
 21 22  1  0  0  0  0
 22 23  1  0  0  0  0
 23 24  1  0  0  0  0
 24 25  1  0  0  0  0
 25 26  1  0  0  0  0
 21 26  1  0  0  0  0
 24 27  1  0  0  0  0
 19 21  1  0  0  0  0
  3 12  1  0  0  0  0
  6 28  1  0  0  0  0
  4 29  1  0  0  0  0
 30 31  1  0  0  0  0
 31 32  1  0  0  0  0
 32 33  1  0  0  0  0
 32 34  2  0  0  0  0
 31 35  1  0  0  0  0
 36 37  1  0  0  0  0
 37 38  1  0  0  0  0
 38 39  1  0  0  0  0
 38 40  2  0  0  0  0
 37 41  1  0  0  0  0
M  END
>  <Mol_ID> (226)
969

>  <Formula> (226)
C27H33FN6O7

>  <MolWeight> (226)
572.5853232

>  <Cat> (226)
S2769 

>  <Name> (226)
Dovitinib Dilactic acid (TKI258 Dilactic aci

>  <Synonyms> (226)
CHIR-258 Dilactic acid 

>  <Target> (226)
Flt, FGFR, PDGFR, VEGFR, c-Kit

>  <Form> (226)
Dilactic Acid 

>  <CAS> (226)
852433-84-2

>  <URL> (226)
http://www.selleckchem.com/products/dovitinib.html

$$$$
AST-1306.cdx
csChFnd80/05071909292D

 43 46  0  0  0  0  0  0  0  0999 V2000
   16.8000   12.2776    0.0000 C   0  0  0  0  0  0  0  0  0  0  0  0
   17.5000   13.4901    0.0000 C   0  0  0  0  0  0  0  0  0  0  0  0
   16.8000   14.7025    0.0000 C   0  0  0  0  0  0  0  0  0  0  0  0
   17.5000   11.0652    0.0000 O   0  0  0  0  0  0  0  0  0  0  0  0
   15.4000   12.2776    0.0000 N   0  0  0  0  0  0  0  0  0  0  0  0
   12.6000    7.4279    0.0000 N   0  0  0  0  0  0  0  0  0  0  0  0
   11.2000    7.4279    0.0000 C   0  0  0  0  0  0  0  0  0  0  0  0
   10.5000    8.6403    0.0000 N   0  0  0  0  0  0  0  0  0  0  0  0
   11.2000    9.8528    0.0000 C   0  0  0  0  0  0  0  0  0  0  0  0
   12.6000    9.8528    0.0000 C   0  0  0  0  0  0  0  0  0  0  0  0
   13.3000   11.0652    0.0000 C   0  0  0  0  0  0  0  0  0  0  0  0
   14.7000   11.0652    0.0000 C   0  0  0  0  0  0  0  0  0  0  0  0
   15.4000    9.8528    0.0000 C   0  0  0  0  0  0  0  0  0  0  0  0
   14.7000    8.6403    0.0000 C   0  0  0  0  0  0  0  0  0  0  0  0
   13.3000    8.6403    0.0000 C   0  0  0  0  0  0  0  0  0  0  0  0
   10.5000   11.0652    0.0000 N   0  0  0  0  0  0  0  0  0  0  0  0
    9.1000   11.0652    0.0000 C   0  0  0  0  0  0  0  0  0  0  0  0
    8.4000    9.8528    0.0000 C   0  0  0  0  0  0  0  0  0  0  0  0
    7.0000    9.8528    0.0000 C   0  0  0  0  0  0  0  0  0  0  0  0
    6.3000   11.0652    0.0000 C   0  0  0  0  0  0  0  0  0  0  0  0
    7.0000   12.2776    0.0000 C   0  0  0  0  0  0  0  0  0  0  0  0
    8.4000   12.2776    0.0000 C   0  0  0  0  0  0  0  0  0  0  0  0
    4.9000   11.0652    0.0000 O   0  0  0  0  0  0  0  0  0  0  0  0
    4.2000   12.2776    0.0000 C   0  0  0  0  0  0  0  0  0  0  0  0
    2.8000   12.2776    0.0000 C   0  0  0  0  0  0  0  0  0  0  0  0
    2.1000   11.0652    0.0000 C   0  0  0  0  0  0  0  0  0  0  0  0
    0.7000   11.0652    0.0000 C   0  0  0  0  0  0  0  0  0  0  0  0
    0.0000   12.2776    0.0000 C   0  0  0  0  0  0  0  0  0  0  0  0
    0.7000   13.4901    0.0000 C   0  0  0  0  0  0  0  0  0  0  0  0
    2.1000   13.4901    0.0000 C   0  0  0  0  0  0  0  0  0  0  0  0
    0.0000    9.8528    0.0000 F   0  0  0  0  0  0  0  0  0  0  0  0
    6.3000    8.6403    0.0000 Cl  0  0  0  0  0  0  0  0  0  0  0  0
    6.6422    3.4951    0.0000 C   0  0  0  0  0  0  0  0  0  0  0  0
    6.6422    2.0951    0.0000 C   0  0  0  0  0  0  0  0  0  0  0  0
    7.8547    1.3951    0.0000 C   0  0  0  0  0  0  0  0  0  0  0  0
    9.0671    2.0951    0.0000 C   0  0  0  0  0  0  0  0  0  0  0  0
    9.0671    3.4951    0.0000 C   0  0  0  0  0  0  0  0  0  0  0  0
    7.8547    4.1951    0.0000 C   0  0  0  0  0  0  0  0  0  0  0  0
    7.8547    5.5903    0.0000 S   0  0  0  0  0  0  0  0  0  0  0  0
    6.6464    6.2878    0.0000 O   0  0  0  0  0  0  0  0  0  0  0  0
    9.0629    6.2878    0.0000 O   0  0  0  0  0  0  0  0  0  0  0  0
    7.8547    6.9854    0.0000 O   0  0  0  0  0  0  0  0  0  0  0  0
    7.8547    0.0000    0.0000 C   0  0  0  0  0  0  0  0  0  0  0  0
  1  2  1  0  0  0  0
  2  3  2  0  0  0  0
  1  4  2  0  0  0  0
  1  5  1  0  0  0  0
  6  7  1  0  0  0  0
  7  8  2  0  0  0  0
  8  9  1  0  0  0  0
  9 10  2  0  0  0  0
 10 11  1  0  0  0  0
 11 12  2  0  0  0  0
 12 13  1  0  0  0  0
 13 14  2  0  0  0  0
 14 15  1  0  0  0  0
  6 15  2  0  0  0  0
 10 15  1  0  0  0  0
 17 18  1  0  0  0  0
 18 19  2  0  0  0  0
 19 20  1  0  0  0  0
 20 21  2  0  0  0  0
 21 22  1  0  0  0  0
 17 22  2  0  0  0  0
 23 24  1  0  0  0  0
 25 26  1  0  0  0  0
 26 27  2  0  0  0  0
 27 28  1  0  0  0  0
 28 29  2  0  0  0  0
 29 30  1  0  0  0  0
 25 30  2  0  0  0  0
 27 31  1  0  0  0  0
 24 25  1  0  0  0  0
 20 23  1  0  0  0  0
 19 32  1  0  0  0  0
 16 17  1  0  0  0  0
  9 16  1  0  0  0  0
  5 12  1  0  0  0  0
 33 34  2  0  0  0  0
 34 35  1  0  0  0  0
 35 36  2  0  0  0  0
 36 37  1  0  0  0  0
 37 38  2  0  0  0  0
 38 33  1  0  0  0  0
 38 39  1  0  0  0  0
 39 40  1  0  0  0  0
 39 41  2  0  0  0  0
 39 42  2  0  0  0  0
 35 43  1  0  0  0  0
M  END
>  <Mol_ID> (227)
970

>  <Formula> (227)
C31H26ClFN4O5S

>  <MolWeight> (227)
621.0783432

>  <Cat> (227)
S2185

>  <Name> (227)
AST-1306

>  <Synonyms> (227)
N/A

>  <Target> (227)
EGFR

>  <Form> (227)
Mesylate

>  <CAS> (227)
1050500-29-2

>  <URL> (227)
http://www.selleckchem.com/products/ast-1306.html

$$$$
BMS265246.cdx
csChFnd80/05071909292D

 25 27  0  0  0  0  0  0  0  0999 V2000
    5.7917    2.8000    0.0000 C   0  0  0  0  0  0  0  0  0  0  0  0
    5.7917    4.2000    0.0000 O   0  0  0  0  0  0  0  0  0  0  0  0
    7.0041    2.1000    0.0000 C   0  0  0  0  0  0  0  0  0  0  0  0
    7.0041    0.7000    0.0000 C   0  0  0  0  0  0  0  0  0  0  0  0
    8.2166    0.0000    0.0000 C   0  0  0  0  0  0  0  0  0  0  0  0
    9.4290    0.7000    0.0000 C   0  0  0  0  0  0  0  0  0  0  0  0
    9.4290    2.1000    0.0000 C   0  0  0  0  0  0  0  0  0  0  0  0
    8.2166    2.8000    0.0000 C   0  0  0  0  0  0  0  0  0  0  0  0
   10.6414    0.0000    0.0000 C   0  0  0  0  0  0  0  0  0  0  0  0
    8.2166    4.2000    0.0000 F   0  0  0  0  0  0  0  0  0  0  0  0
    5.7917    0.0000    0.0000 F   0  0  0  0  0  0  0  0  0  0  0  0
    2.1544    0.7000    0.0000 C   0  0  0  0  0  0  0  0  0  0  0  0
    2.1544    2.1000    0.0000 C   0  0  0  0  0  0  0  0  0  0  0  0
    3.3668    2.8000    0.0000 C   0  0  0  0  0  0  0  0  0  0  0  0
    4.5792    2.1000    0.0000 C   0  0  0  0  0  0  0  0  0  0  0  0
    4.5792    0.7000    0.0000 C   0  0  0  0  0  0  0  0  0  0  0  0
    3.3668    0.0000    0.0000 N   0  0  0  0  0  0  0  0  0  0  0  0
    0.0000    1.4000    0.0000 N   0  0  0  0  0  0  0  0  0  0  0  0
    0.8229    0.2674    0.0000 N   0  0  0  0  0  0  0  0  0  0  0  0
    0.8229    2.5326    0.0000 C   0  0  0  0  0  0  0  0  0  0  0  0
    3.3668    4.2000    0.0000 O   0  0  0  0  0  0  0  0  0  0  0  0
    2.1544    4.9000    0.0000 C   0  0  0  0  0  0  0  0  0  0  0  0
    2.1544    6.3000    0.0000 C   0  0  0  0  0  0  0  0  0  0  0  0
    3.3668    7.0000    0.0000 C   0  0  0  0  0  0  0  0  0  0  0  0
    4.5793    6.3000    0.0000 C   0  0  0  0  0  0  0  0  0  0  0  0
  1  2  2  0  0  0  0
  3  4  1  0  0  0  0
  4  5  2  0  0  0  0
  5  6  1  0  0  0  0
  6  7  2  0  0  0  0
  7  8  1  0  0  0  0
  3  8  2  0  0  0  0
  6  9  1  0  0  0  0
  8 10  1  0  0  0  0
  4 11  1  0  0  0  0
  1  3  1  0  0  0  0
 12 13  1  0  0  0  0
 13 14  2  0  0  0  0
 14 15  1  0  0  0  0
 15 16  2  0  0  0  0
 16 17  1  0  0  0  0
 12 17  2  0  0  0  0
 18 19  1  0  0  0  0
 18 20  2  0  0  0  0
 12 19  1  0  0  0  0
 13 20  1  0  0  0  0
 22 23  1  0  0  0  0
 23 24  1  0  0  0  0
 24 25  1  0  0  0  0
 21 22  1  0  0  0  0
 14 21  1  0  0  0  0
  1 15  1  0  0  0  0
M  END
>  <Mol_ID> (228)
971

>  <Formula> (228)
C18H17F2N3O2

>  <MolWeight> (228)
345.3432864

>  <Cat> (228)
S2014

>  <Name> (228)
BMS-265246

>  <Synonyms> (228)
 N/A  

>  <Target> (228)
CDK

>  <Form> (228)
Free Base

>  <CAS> (228)
582315-72-8

>  <URL> (228)
http://www.selleckchem.com/products/bms-265246.html

$$$$
SB505124.cdx
csChFnd80/05071909292D

 25 28  0  0  0  0  0  0  0  0999 V2000
    1.2082    2.1000    0.0000 C   0  0  0  0  0  0  0  0  0  0  0  0
    1.2082    0.7000    0.0000 C   0  0  0  0  0  0  0  0  0  0  0  0
    2.4207    0.0000    0.0000 C   0  0  0  0  0  0  0  0  0  0  0  0
    3.6331    0.7000    0.0000 C   0  0  0  0  0  0  0  0  0  0  0  0
    3.6331    2.1000    0.0000 C   0  0  0  0  0  0  0  0  0  0  0  0
    2.4207    2.8000    0.0000 N   0  0  0  0  0  0  0  0  0  0  0  0
    0.0000    2.7976    0.0000 C   0  0  0  0  0  0  0  0  0  0  0  0
    4.8413    2.7976    0.0000 C   0  0  0  0  0  0  0  0  0  0  0  0
    6.1203    2.2281    0.0000 N   0  0  0  0  0  0  0  0  0  0  0  0
    7.0571    3.2685    0.0000 C   0  0  0  0  0  0  0  0  0  0  0  0
    6.3571    4.4810    0.0000 N   0  0  0  0  0  0  0  0  0  0  0  0
    4.9877    4.1899    0.0000 C   0  0  0  0  0  0  0  0  0  0  0  0
    3.9509    5.1234    0.0000 C   0  0  0  0  0  0  0  0  0  0  0  0
    8.4446    3.1227    0.0000 C   0  0  0  0  0  0  0  0  0  0  0  0
    9.0120    1.8482    0.0000 C   0  0  0  0  0  0  0  0  0  0  0  0
    9.2646    4.2514    0.0000 C   0  0  0  0  0  0  0  0  0  0  0  0
    7.8771    4.3972    0.0000 C   0  0  0  0  0  0  0  0  0  0  0  0
    4.2420    6.4928    0.0000 C   0  0  0  0  0  0  0  0  0  0  0  0
    3.2015    7.4296    0.0000 C   0  0  0  0  0  0  0  0  0  0  0  0
    1.8701    6.9970    0.0000 C   0  0  0  0  0  0  0  0  0  0  0  0
    1.5790    5.6276    0.0000 C   0  0  0  0  0  0  0  0  0  0  0  0
    2.6194    4.6908    0.0000 C   0  0  0  0  0  0  0  0  0  0  0  0
    3.2015    8.8296    0.0000 O   0  0  0  0  0  0  0  0  0  0  0  0
    1.8701    9.2622    0.0000 C   0  0  0  0  0  0  0  0  0  0  0  0
    1.0472    8.1296    0.0000 O   0  0  0  0  0  0  0  0  0  0  0  0
  1  2  2  0  0  0  0
  2  3  1  0  0  0  0
  3  4  2  0  0  0  0
  4  5  1  0  0  0  0
  5  6  2  0  0  0  0
  6  1  1  0  0  0  0
  1  7  1  0  0  0  0
  5  8  1  0  0  0  0
  8  9  1  0  0  0  0
  9 10  1  0  0  0  0
 10 11  2  0  0  0  0
 11 12  1  0  0  0  0
 12  8  2  0  0  0  0
 12 13  1  0  0  0  0
 10 14  1  0  0  0  0
 14 15  1  0  0  0  0
 14 16  1  0  0  0  0
 14 17  1  0  0  0  0
 13 18  2  0  0  0  0
 18 19  1  0  0  0  0
 19 20  2  0  0  0  0
 20 21  1  0  0  0  0
 21 22  2  0  0  0  0
 22 13  1  0  0  0  0
 19 23  1  0  0  0  0
 23 24  1  0  0  0  0
 24 25  1  0  0  0  0
 25 20  1  0  0  0  0
M  END
>  <Mol_ID> (229)
973

>  <Formula> (229)
C20H21N3O2

>  <MolWeight> (229)
335.39964

>  <Cat> (229)
S2186

>  <Name> (229)
SB-505124

>  <Synonyms> (229)
N/A 

>  <Target> (229)
TGF-beta/Smad 

>  <Form> (229)
Free Base

>  <CAS> (229)
694433-59-5

>  <URL> (229)
http://www.selleckchem.com/products/sb-505124.html

$$$$
MK-2461.cdx
csChFnd80/05071909292D

 35 39  0  0  0  0  0  0  0  0999 V2000
    7.2363   10.0424    0.0000 C   0  0  0  0  0  0  0  0  0  0  0  0
    7.2363    8.6424    0.0000 C   0  0  0  0  0  0  0  0  0  0  0  0
    8.3309    7.7695    0.0000 C   0  0  0  0  0  0  0  0  0  0  0  0
    9.6958    8.0811    0.0000 C   0  0  0  0  0  0  0  0  0  0  0  0
   10.3032    9.3424    0.0000 C   0  0  0  0  0  0  0  0  0  0  0  0
    9.6958   10.6038    0.0000 C   0  0  0  0  0  0  0  0  0  0  0  0
    8.3309   10.9153    0.0000 C   0  0  0  0  0  0  0  0  0  0  0  0
    6.0239   10.7424    0.0000 N   0  0  0  0  0  0  0  0  0  0  0  0
    4.8115   10.0424    0.0000 C   0  0  0  0  0  0  0  0  0  0  0  0
    4.8115    8.6424    0.0000 C   0  0  0  0  0  0  0  0  0  0  0  0
    6.0239    7.9424    0.0000 C   0  0  0  0  0  0  0  0  0  0  0  0
   10.4845    6.9243    0.0000 C   0  0  0  0  0  0  0  0  0  0  0  0
   11.8805    7.0290    0.0000 C   0  0  0  0  0  0  0  0  0  0  0  0
   12.4880    8.2903    0.0000 C   0  0  0  0  0  0  0  0  0  0  0  0
   11.6993    9.4471    0.0000 C   0  0  0  0  0  0  0  0  0  0  0  0
    8.0205    6.4094    0.0000 O   0  0  0  0  0  0  0  0  0  0  0  0
    3.6032    7.9449    0.0000 C   0  0  0  0  0  0  0  0  0  0  0  0
    2.3243    8.5143    0.0000 C   0  0  0  0  0  0  0  0  0  0  0  0
    1.3875    7.4739    0.0000 N   0  0  0  0  0  0  0  0  0  0  0  0
    2.0875    6.2615    0.0000 N   0  0  0  0  0  0  0  0  0  0  0  0
    3.4569    6.5525    0.0000 C   0  0  0  0  0  0  0  0  0  0  0  0
    0.0000    7.6197    0.0000 C   0  0  0  0  0  0  0  0  0  0  0  0
   12.6665    5.8762    0.0000 N   0  0  0  0  0  0  0  0  0  0  0  0
   14.0577    5.9805    0.0000 S   0  0  0  0  0  0  0  0  0  0  0  0
   14.8436    4.8278    0.0000 N   0  0  0  0  0  0  0  0  0  0  0  0
   14.6630    7.2375    0.0000 O   0  0  0  0  0  0  0  0  0  0  0  0
   15.7761    5.9805    0.0000 O   0  0  0  0  0  0  0  0  0  0  0  0
   14.2383    3.5708    0.0000 C   0  0  0  0  0  0  0  0  0  0  0  0
   16.2348    4.9320    0.0000 C   0  0  0  0  0  0  0  0  0  0  0  0
   15.0242    2.4181    0.0000 C   0  0  1  0  0  0  0  0  0  0  0  0
   14.4167    1.1567    0.0000 O   0  0  0  0  0  0  0  0  0  0  0  0
   15.2054    0.0000    0.0000 C   0  0  0  0  0  0  0  0  0  0  0  0
   16.6015    0.1046    0.0000 C   0  0  0  0  0  0  0  0  0  0  0  0
   17.2089    1.3660    0.0000 O   0  0  0  0  0  0  0  0  0  0  0  0
   16.4203    2.5227    0.0000 C   0  0  0  0  0  0  0  0  0  0  0  0
  1  2  2  0  0  0  0
  2  3  1  0  0  0  0
  3  4  1  0  0  0  0
  4  5  2  0  0  0  0
  5  6  1  0  0  0  0
  6  7  2  0  0  0  0
  7  1  1  0  0  0  0
  1  8  1  0  0  0  0
  8  9  2  0  0  0  0
  9 10  1  0  0  0  0
 10 11  2  0  0  0  0
 11  2  1  0  0  0  0
  4 12  1  0  0  0  0
 12 13  2  0  0  0  0
 13 14  1  0  0  0  0
 14 15  2  0  0  0  0
 15  5  1  0  0  0  0
  3 16  2  0  0  0  0
 10 17  1  0  0  0  0
 17 18  2  0  0  0  0
 18 19  1  0  0  0  0
 19 20  1  0  0  0  0
 20 21  2  0  0  0  0
 21 17  1  0  0  0  0
 19 22  1  0  0  0  0
 13 23  1  0  0  0  0
 23 24  1  0  0  0  0
 24 25  1  0  0  0  0
 24 26  2  0  0  0  0
 24 27  2  0  0  0  0
 25 28  1  0  0  0  0
 25 29  1  0  0  0  0
 28 30  1  0  0  0  0
 30 31  1  6  0  0  0
 31 32  1  0  0  0  0
 32 33  1  0  0  0  0
 33 34  1  0  0  0  0
 34 35  1  0  0  0  0
 35 30  1  0  0  0  0
M  END
>  <Mol_ID> (230)
974

>  <Formula> (230)
C24H25N5O5S

>  <MolWeight> (230)
495.5508

>  <Cat> (230)
S2774

>  <Name> (230)
MK-2461

>  <Synonyms> (230)
N/A 

>  <Target> (230)
c-Met, FGFR, PDGFR

>  <Form> (230)
Free Base

>  <CAS> (230)
917879-39-1

>  <URL> (230)
http://www.selleckchem.com/products/mk-2461.html

$$$$
Nocodazole.cdx
csChFnd80/05071909292D

 21 23  0  0  0  0  0  0  0  0999 V2000
   10.5240    2.1000    0.0000 C   0  0  0  0  0  0  0  0  0  0  0  0
    9.3116    1.4000    0.0000 N   0  0  0  0  0  0  0  0  0  0  0  0
   10.5240    3.5000    0.0000 O   0  0  0  0  0  0  0  0  0  0  0  0
   11.7365    1.4000    0.0000 O   0  0  0  0  0  0  0  0  0  0  0  0
    8.0992    2.1000    0.0000 C   0  0  0  0  0  0  0  0  0  0  0  0
    7.9528    3.4923    0.0000 N   0  0  0  0  0  0  0  0  0  0  0  0
    6.5834    3.7834    0.0000 C   0  0  0  0  0  0  0  0  0  0  0  0
    5.8834    2.5710    0.0000 C   0  0  0  0  0  0  0  0  0  0  0  0
    6.8202    1.5306    0.0000 N   0  0  0  0  0  0  0  0  0  0  0  0
    5.8834    4.9958    0.0000 C   0  0  0  0  0  0  0  0  0  0  0  0
    4.4834    4.9958    0.0000 C   0  0  0  0  0  0  0  0  0  0  0  0
    3.7834    3.7834    0.0000 C   0  0  0  0  0  0  0  0  0  0  0  0
    4.4834    2.5710    0.0000 C   0  0  0  0  0  0  0  0  0  0  0  0
    2.3834    3.7834    0.0000 C   0  0  0  0  0  0  0  0  0  0  0  0
    1.6834    4.9958    0.0000 O   0  0  0  0  0  0  0  0  0  0  0  0
    1.6834    2.5710    0.0000 C   0  0  0  0  0  0  0  0  0  0  0  0
    2.2528    1.2920    0.0000 C   0  0  0  0  0  0  0  0  0  0  0  0
    1.2124    0.3552    0.0000 C   0  0  0  0  0  0  0  0  0  0  0  0
    0.0000    1.0552    0.0000 C   0  0  0  0  0  0  0  0  0  0  0  0
    0.2911    2.4246    0.0000 S   0  0  0  0  0  0  0  0  0  0  0  0
   11.7365    0.0000    0.0000 C   0  0  0  0  0  0  0  0  0  0  0  0
  1  2  1  0  0  0  0
  1  3  2  0  0  0  0
  1  4  1  0  0  0  0
  5  6  2  0  0  0  0
  6  7  1  0  0  0  0
  7  8  1  0  0  0  0
  8  9  1  0  0  0  0
  5  9  1  0  0  0  0
 10 11  1  0  0  0  0
 11 12  2  0  0  0  0
 12 13  1  0  0  0  0
  8 13  2  0  0  0  0
  7 10  2  0  0  0  0
 14 15  2  0  0  0  0
 16 17  2  0  0  0  0
 17 18  1  0  0  0  0
 18 19  2  0  0  0  0
 19 20  1  0  0  0  0
 16 20  1  0  0  0  0
 14 16  1  0  0  0  0
 12 14  1  0  0  0  0
  2  5  1  0  0  0  0
  4 21  1  0  0  0  0
M  END
>  <Mol_ID> (231)
975

>  <Formula> (231)
C14H11N3O3S

>  <MolWeight> (231)
301.32044

>  <Cat> (231)
S2775

>  <Name> (231)
Nocodazole

>  <Synonyms> (231)
N/A 

>  <Target> (231)
Microtubule Associated

>  <Form> (231)
Free Base

>  <CAS> (231)
31430-18-9

>  <URL> (231)
http://www.selleckchem.com/products/nocodazole.html

$$$$
AZD2014.cdx
csChFnd80/05071909292D

 34 38  0  0  0  0  0  0  0  0999 V2000
    7.2578    4.1976    0.0000 C   0  0  0  0  0  0  0  0  0  0  0  0
    7.2578    2.7976    0.0000 C   0  0  0  0  0  0  0  0  0  0  0  0
    8.4702    2.0976    0.0000 N   0  0  0  0  0  0  0  0  0  0  0  0
    9.6827    2.7976    0.0000 C   0  0  0  0  0  0  0  0  0  0  0  0
    9.6827    4.1976    0.0000 C   0  0  0  0  0  0  0  0  0  0  0  0
    8.4702    4.8976    0.0000 C   0  0  0  0  0  0  0  0  0  0  0  0
   10.8951    2.0976    0.0000 N   0  0  0  0  0  0  0  0  0  0  0  0
   12.1075    2.7976    0.0000 C   0  0  0  0  0  0  0  0  0  0  0  0
   12.1075    4.1976    0.0000 N   0  0  0  0  0  0  0  0  0  0  0  0
   10.8951    4.8976    0.0000 C   0  0  0  0  0  0  0  0  0  0  0  0
   13.3157    2.1000    0.0000 N   0  0  0  0  0  0  0  0  0  0  0  0
   13.3157    0.7000    0.0000 C   0  0  2  0  0  0  0  0  0  0  0  0
   14.5282    0.0000    0.0000 C   0  0  0  0  0  0  0  0  0  0  0  0
   15.7406    0.7000    0.0000 O   0  0  0  0  0  0  0  0  0  0  0  0
   15.7406    2.1000    0.0000 C   0  0  0  0  0  0  0  0  0  0  0  0
   14.5282    2.8000    0.0000 C   0  0  0  0  0  0  0  0  0  0  0  0
    6.0496    2.1000    0.0000 C   0  0  0  0  0  0  0  0  0  0  0  0
    4.8371    2.8000    0.0000 C   0  0  0  0  0  0  0  0  0  0  0  0
    3.6247    2.1000    0.0000 C   0  0  0  0  0  0  0  0  0  0  0  0
    3.6247    0.7000    0.0000 C   0  0  0  0  0  0  0  0  0  0  0  0
    4.8371    0.0000    0.0000 C   0  0  0  0  0  0  0  0  0  0  0  0
    6.0496    0.7000    0.0000 C   0  0  0  0  0  0  0  0  0  0  0  0
    2.4165    2.7976    0.0000 C   0  0  0  0  0  0  0  0  0  0  0  0
    1.2082    2.1000    0.0000 N   0  0  0  0  0  0  0  0  0  0  0  0
    0.0000    2.7976    0.0000 C   0  0  0  0  0  0  0  0  0  0  0  0
    2.4165    4.1927    0.0000 O   0  0  0  0  0  0  0  0  0  0  0  0
   10.8951    6.2927    0.0000 N   0  0  0  0  0  0  0  0  0  0  0  0
   12.1075    6.9927    0.0000 C   0  0  2  0  0  0  0  0  0  0  0  0
   12.1075    8.3927    0.0000 C   0  0  0  0  0  0  0  0  0  0  0  0
   10.8951    9.0927    0.0000 O   0  0  0  0  0  0  0  0  0  0  0  0
    9.6827    8.3927    0.0000 C   0  0  0  0  0  0  0  0  0  0  0  0
    9.6827    6.9927    0.0000 C   0  0  0  0  0  0  0  0  0  0  0  0
   13.3157    6.2951    0.0000 C   0  0  0  0  0  0  0  0  0  0  0  0
   12.1075    0.0024    0.0000 C   0  0  0  0  0  0  0  0  0  0  0  0
  1  2  2  0  0  0  0
  2  3  1  0  0  0  0
  3  4  2  0  0  0  0
  4  5  1  0  0  0  0
  5  6  2  0  0  0  0
  6  1  1  0  0  0  0
  4  7  1  0  0  0  0
  7  8  2  0  0  0  0
  8  9  1  0  0  0  0
  9 10  2  0  0  0  0
 10  5  1  0  0  0  0
  8 11  1  0  0  0  0
 11 12  1  0  0  0  0
 12 13  1  0  0  0  0
 13 14  1  0  0  0  0
 14 15  1  0  0  0  0
 15 16  1  0  0  0  0
 16 11  1  0  0  0  0
  2 17  1  0  0  0  0
 17 18  2  0  0  0  0
 18 19  1  0  0  0  0
 19 20  2  0  0  0  0
 20 21  1  0  0  0  0
 21 22  2  0  0  0  0
 22 17  1  0  0  0  0
 19 23  1  0  0  0  0
 23 24  1  0  0  0  0
 24 25  1  0  0  0  0
 23 26  2  0  0  0  0
 10 27  1  0  0  0  0
 27 28  1  0  0  0  0
 28 29  1  0  0  0  0
 29 30  1  0  0  0  0
 30 31  1  0  0  0  0
 31 32  1  0  0  0  0
 32 27  1  0  0  0  0
 28 33  1  6  0  0  0
 12 34  1  6  0  0  0
M  END
>  <Mol_ID> (232)
981

>  <Formula> (232)
C25H30N6O3

>  <MolWeight> (232)
462.5441

>  <Cat> (232)
S2783 

>  <Name> (232)
Vistusertib (AZD2014)

>  <Synonyms> (232)
N/A 

>  <Target> (232)
mTOR

>  <Form> (232)
Free Base

>  <CAS> (232)
1009298-59-2

>  <URL> (232)
http://www.selleckchem.com/products/azd2014.html

$$$$
TAK-285.cdx
csChFnd80/05071909292D

 38 41  0  0  0  0  0  0  0  0999 V2000
    8.4887    6.2927    0.0000 C   0  0  0  0  0  0  0  0  0  0  0  0
    8.4887    4.8927    0.0000 C   0  0  0  0  0  0  0  0  0  0  0  0
    9.7011    4.1927    0.0000 C   0  0  0  0  0  0  0  0  0  0  0  0
   10.9135    4.8927    0.0000 N   0  0  0  0  0  0  0  0  0  0  0  0
   10.9135    6.2927    0.0000 C   0  0  0  0  0  0  0  0  0  0  0  0
    9.7011    6.9927    0.0000 N   0  0  0  0  0  0  0  0  0  0  0  0
    7.1572    6.7253    0.0000 C   0  0  0  0  0  0  0  0  0  0  0  0
    6.3343    5.5927    0.0000 C   0  0  0  0  0  0  0  0  0  0  0  0
    7.1572    4.4601    0.0000 N   0  0  0  0  0  0  0  0  0  0  0  0
    9.7011    2.7976    0.0000 N   0  0  0  0  0  0  0  0  0  0  0  0
    6.7261    3.1332    0.0000 C   0  0  0  0  0  0  0  0  0  0  0  0
   10.9093    2.1000    0.0000 C   0  0  0  0  0  0  0  0  0  0  0  0
    5.3481    2.9150    0.0000 C   0  0  0  0  0  0  0  0  0  0  0  0
    4.8481    1.6125    0.0000 N   0  0  0  0  0  0  0  0  0  0  0  0
    3.4702    1.3943    0.0000 C   0  0  0  0  0  0  0  0  0  0  0  0
    2.9702    0.0918    0.0000 O   0  0  0  0  0  0  0  0  0  0  0  0
    2.5922    2.4785    0.0000 C   0  0  0  0  0  0  0  0  0  0  0  0
    1.2082    2.2708    0.0000 C   0  0  0  0  0  0  0  0  0  0  0  0
    0.0000    1.5733    0.0000 O   0  0  0  0  0  0  0  0  0  0  0  0
    1.6684    0.9411    0.0000 C   0  0  0  0  0  0  0  0  0  0  0  0
    0.3362    3.3445    0.0000 C   0  0  0  0  0  0  0  0  0  0  0  0
   10.9093    0.7000    0.0000 C   0  0  0  0  0  0  0  0  0  0  0  0
   12.1218    0.0000    0.0000 C   0  0  0  0  0  0  0  0  0  0  0  0
   13.3342    0.7000    0.0000 C   0  0  0  0  0  0  0  0  0  0  0  0
   13.3342    2.1000    0.0000 C   0  0  0  0  0  0  0  0  0  0  0  0
   12.1218    2.8000    0.0000 C   0  0  0  0  0  0  0  0  0  0  0  0
   14.5424    2.7976    0.0000 Cl  0  0  0  0  0  0  0  0  0  0  0  0
   14.5424    0.0024    0.0000 O   0  0  0  0  0  0  0  0  0  0  0  0
   15.7507    0.7000    0.0000 C   0  0  0  0  0  0  0  0  0  0  0  0
   16.9631    0.0000    0.0000 C   0  0  0  0  0  0  0  0  0  0  0  0
   18.1755    0.7000    0.0000 C   0  0  0  0  0  0  0  0  0  0  0  0
   18.1755    2.1000    0.0000 C   0  0  0  0  0  0  0  0  0  0  0  0
   16.9631    2.8000    0.0000 C   0  0  0  0  0  0  0  0  0  0  0  0
   15.7507    2.1000    0.0000 C   0  0  0  0  0  0  0  0  0  0  0  0
   16.9631    4.1951    0.0000 C   0  0  0  0  0  0  0  0  0  0  0  0
   15.5680    4.1951    0.0000 F   0  0  0  0  0  0  0  0  0  0  0  0
   18.3582    4.1951    0.0000 F   0  0  0  0  0  0  0  0  0  0  0  0
   16.9631    5.5903    0.0000 F   0  0  0  0  0  0  0  0  0  0  0  0
  1  2  2  0  0  0  0
  2  3  1  0  0  0  0
  3  4  2  0  0  0  0
  4  5  1  0  0  0  0
  5  6  2  0  0  0  0
  6  1  1  0  0  0  0
  1  7  1  0  0  0  0
  7  8  2  0  0  0  0
  8  9  1  0  0  0  0
  9  2  1  0  0  0  0
  3 10  1  0  0  0  0
  9 11  1  0  0  0  0
 10 12  1  0  0  0  0
 11 13  1  0  0  0  0
 13 14  1  0  0  0  0
 14 15  1  0  0  0  0
 15 16  2  0  0  0  0
 15 17  1  0  0  0  0
 17 18  1  0  0  0  0
 18 19  1  0  0  0  0
 18 20  1  0  0  0  0
 18 21  1  0  0  0  0
 12 22  2  0  0  0  0
 22 23  1  0  0  0  0
 23 24  2  0  0  0  0
 24 25  1  0  0  0  0
 25 26  2  0  0  0  0
 26 12  1  0  0  0  0
 25 27  1  0  0  0  0
 24 28  1  0  0  0  0
 28 29  1  0  0  0  0
 29 30  2  0  0  0  0
 30 31  1  0  0  0  0
 31 32  2  0  0  0  0
 32 33  1  0  0  0  0
 33 34  2  0  0  0  0
 34 29  1  0  0  0  0
 33 35  1  0  0  0  0
 35 36  1  0  0  0  0
 35 37  1  0  0  0  0
 35 38  1  0  0  0  0
M  END
>  <Mol_ID> (233)
982

>  <Formula> (233)
C26H25ClF3N5O3

>  <MolWeight> (233)
547.9566096

>  <Cat> (233)
S2784 

>  <Name> (233)
TAK-285

>  <Synonyms> (233)
N/A

>  <Target> (233)
EGFR, HER2

>  <Form> (233)
Free Base

>  <CAS> (233)
871026-44-7

>  <URL> (233)
http://www.selleckchem.com/products/tak-285.html

$$$$
CP-690550.cdx
csChFnd80/05071909292D

 23 25  0  0  0  0  0  0  0  0999 V2000
    0.0000    2.1000    0.0000 N   0  0  0  0  0  0  0  0  0  0  0  0
    0.0000    0.7000    0.0000 C   0  0  0  0  0  0  0  0  0  0  0  0
    1.2124    0.0000    0.0000 N   0  0  0  0  0  0  0  0  0  0  0  0
    2.4249    0.7000    0.0000 C   0  0  0  0  0  0  0  0  0  0  0  0
    2.4249    2.1000    0.0000 C   0  0  0  0  0  0  0  0  0  0  0  0
    1.2124    2.8000    0.0000 C   0  0  0  0  0  0  0  0  0  0  0  0
    3.7564    0.2674    0.0000 N   0  0  0  0  0  0  0  0  0  0  0  0
    4.5793    1.4000    0.0000 C   0  0  0  0  0  0  0  0  0  0  0  0
    3.7564    2.5326    0.0000 C   0  0  0  0  0  0  0  0  0  0  0  0
    1.2124    4.1951    0.0000 N   0  0  0  0  0  0  0  0  0  0  0  0
    0.0042    4.8927    0.0000 C   0  0  0  0  0  0  0  0  0  0  0  0
    2.4207    4.8927    0.0000 C   0  0  1  0  0  0  0  0  0  0  0  0
    3.6331    4.1927    0.0000 C   0  0  0  0  0  0  0  0  0  0  0  0
    4.8455    4.8927    0.0000 N   0  0  0  0  0  0  0  0  0  0  0  0
    4.8455    6.2927    0.0000 C   0  0  0  0  0  0  0  0  0  0  0  0
    3.6331    6.9927    0.0000 C   0  0  0  0  0  0  0  0  0  0  0  0
    2.4207    6.2927    0.0000 C   0  0  1  0  0  0  0  0  0  0  0  0
    1.2124    6.9903    0.0000 C   0  0  0  0  0  0  0  0  0  0  0  0
    6.0538    4.1951    0.0000 C   0  0  0  0  0  0  0  0  0  0  0  0
    6.0538    2.8000    0.0000 O   0  0  0  0  0  0  0  0  0  0  0  0
    7.2620    4.8927    0.0000 C   0  0  0  0  0  0  0  0  0  0  0  0
    8.4702    4.1951    0.0000 C   0  0  0  0  0  0  0  0  0  0  0  0
    9.6827    3.4951    0.0000 N   0  0  0  0  0  0  0  0  0  0  0  0
  1  2  2  0  0  0  0
  2  3  1  0  0  0  0
  3  4  2  0  0  0  0
  4  5  1  0  0  0  0
  5  6  2  0  0  0  0
  6  1  1  0  0  0  0
  4  7  1  0  0  0  0
  7  8  1  0  0  0  0
  8  9  2  0  0  0  0
  9  5  1  0  0  0  0
  6 10  1  0  0  0  0
 10 11  1  0  0  0  0
 12 10  1  6  0  0  0
 12 13  1  0  0  0  0
 13 14  1  0  0  0  0
 14 15  1  0  0  0  0
 15 16  1  0  0  0  0
 16 17  1  0  0  0  0
 17 12  1  0  0  0  0
 17 18  1  6  0  0  0
 14 19  1  0  0  0  0
 19 20  2  0  0  0  0
 19 21  1  0  0  0  0
 21 22  1  0  0  0  0
 22 23  3  0  0  0  0
M  END
>  <Mol_ID> (234)
985

>  <Formula> (234)
C16H20N6O

>  <MolWeight> (234)
312.3696

>  <Cat> (234)
S2789

>  <Name> (234)
Tofacitinib (CP-690550, Tasocitinib)

>  <Synonyms> (234)
Tasocitinib 

>  <Target> (234)
JAK

>  <Form> (234)
Free Base

>  <CAS> (234)
477600-75-2

>  <URL> (234)
http://www.selleckchem.com/products/tofacitinib-cp-690550.html

$$$$
WP1066.cdx
csChFnd80/05071909292D

 22 23  0  0  0  0  0  0  0  0999 V2000
    6.0622    1.4000    0.0000 C   0  0  0  0  0  0  0  0  0  0  0  0
    7.2746    2.1000    0.0000 C   0  0  0  0  0  0  0  0  0  0  0  0
    7.2746    3.5000    0.0000 C   0  0  0  0  0  0  0  0  0  0  0  0
    6.0622    0.0000    0.0000 O   0  0  0  0  0  0  0  0  0  0  0  0
    4.8497    2.1000    0.0000 N   0  0  0  0  0  0  0  0  0  0  0  0
    3.6373    1.4000    0.0000 C   0  0  1  0  0  0  0  0  0  0  0  0
    3.6373    0.0000    0.0000 C   0  0  0  0  0  0  0  0  0  0  0  0
    2.4249    2.1000    0.0000 C   0  0  0  0  0  0  0  0  0  0  0  0
    1.2124    1.4000    0.0000 C   0  0  0  0  0  0  0  0  0  0  0  0
    0.0000    2.1000    0.0000 C   0  0  0  0  0  0  0  0  0  0  0  0
    0.0000    3.5000    0.0000 C   0  0  0  0  0  0  0  0  0  0  0  0
    1.2124    4.2000    0.0000 C   0  0  0  0  0  0  0  0  0  0  0  0
    2.4249    3.5000    0.0000 C   0  0  0  0  0  0  0  0  0  0  0  0
    8.4871    1.4000    0.0000 C   0  0  0  0  0  0  0  0  0  0  0  0
    9.6995    0.7000    0.0000 N   0  0  0  0  0  0  0  0  0  0  0  0
    8.4871    4.2000    0.0000 C   0  0  0  0  0  0  0  0  0  0  0  0
    8.4871    5.6000    0.0000 C   0  0  0  0  0  0  0  0  0  0  0  0
    9.6995    6.3000    0.0000 C   0  0  0  0  0  0  0  0  0  0  0  0
   10.9119    5.6000    0.0000 C   0  0  0  0  0  0  0  0  0  0  0  0
   10.9119    4.2000    0.0000 C   0  0  0  0  0  0  0  0  0  0  0  0
    9.6995    3.5000    0.0000 N   0  0  0  0  0  0  0  0  0  0  0  0
   12.1244    3.5000    0.0000 Br  0  0  0  0  0  0  0  0  0  0  0  0
  1  2  1  0  0  0  0
  2  3  2  0  0  0  0
  1  4  2  0  0  0  0
  1  5  1  0  0  0  0
  6  7  1  1  0  0  0
  8  9  1  0  0  0  0
  9 10  2  0  0  0  0
 10 11  1  0  0  0  0
 11 12  2  0  0  0  0
 12 13  1  0  0  0  0
  8 13  2  0  0  0  0
  6  8  1  0  0  0  0
  5  6  1  0  0  0  0
 14 15  3  0  0  0  0
  2 14  1  0  0  0  0
 16 17  1  0  0  0  0
 17 18  2  0  0  0  0
 18 19  1  0  0  0  0
 19 20  2  0  0  0  0
 20 21  1  0  0  0  0
 16 21  2  0  0  0  0
 20 22  1  0  0  0  0
  3 16  1  0  0  0  0
M  END
>  <Mol_ID> (235)
988

>  <Formula> (235)
C17H14BrN3O

>  <MolWeight> (235)
356.21656

>  <Cat> (235)
S2796

>  <Name> (235)
WP1066

>  <Synonyms> (235)
N/A

>  <Target> (235)
JAK 

>  <Form> (235)
Free Base

>  <CAS> (235)
857064-38-1

>  <URL> (235)
http://www.selleckchem.com/products/wp1066.html

$$$$
Piceatannol.cdx
csChFnd80/05071909292D

 18 19  0  0  0  0  0  0  0  0999 V2000
    9.1000    2.4249    0.0000 C   0  0  0  0  0  0  0  0  0  0  0  0
    8.4000    1.2124    0.0000 C   0  0  0  0  0  0  0  0  0  0  0  0
    7.0000    1.2124    0.0000 C   0  0  0  0  0  0  0  0  0  0  0  0
    6.3000    2.4249    0.0000 C   0  0  0  0  0  0  0  0  0  0  0  0
    7.0000    3.6373    0.0000 C   0  0  0  0  0  0  0  0  0  0  0  0
    8.4000    3.6373    0.0000 C   0  0  0  0  0  0  0  0  0  0  0  0
   10.5000    2.4249    0.0000 O   0  0  0  0  0  0  0  0  0  0  0  0
    9.1000    0.0000    0.0000 O   0  0  0  0  0  0  0  0  0  0  0  0
    4.9000    2.4249    0.0000 C   0  0  0  0  0  0  0  0  0  0  0  0
    4.2000    3.6373    0.0000 C   0  0  0  0  0  0  0  0  0  0  0  0
    2.8000    3.6373    0.0000 C   0  0  0  0  0  0  0  0  0  0  0  0
    2.1000    2.4249    0.0000 C   0  0  0  0  0  0  0  0  0  0  0  0
    0.7000    2.4249    0.0000 C   0  0  0  0  0  0  0  0  0  0  0  0
    0.0000    3.6373    0.0000 C   0  0  0  0  0  0  0  0  0  0  0  0
    0.7000    4.8497    0.0000 C   0  0  0  0  0  0  0  0  0  0  0  0
    2.1000    4.8497    0.0000 C   0  0  0  0  0  0  0  0  0  0  0  0
    0.0000    6.0622    0.0000 O   0  0  0  0  0  0  0  0  0  0  0  0
    0.0000    1.2124    0.0000 O   0  0  0  0  0  0  0  0  0  0  0  0
  1  2  1  0  0  0  0
  2  3  2  0  0  0  0
  3  4  1  0  0  0  0
  4  5  2  0  0  0  0
  5  6  1  0  0  0  0
  1  6  2  0  0  0  0
  1  7  1  0  0  0  0
  2  8  1  0  0  0  0
  9 10  2  0  0  0  0
 11 12  1  0  0  0  0
 12 13  2  0  0  0  0
 13 14  1  0  0  0  0
 14 15  2  0  0  0  0
 15 16  1  0  0  0  0
 11 16  2  0  0  0  0
 15 17  1  0  0  0  0
 13 18  1  0  0  0  0
 10 11  1  0  0  0  0
  4  9  1  0  0  0  0
M  END
>  <Mol_ID> (236)
995

>  <Formula> (236)
C14H12O4

>  <MolWeight> (236)
244.24268

>  <Cat> (236)
S3026 

>  <Name> (236)
Piceatannol

>  <Synonyms> (236)
N/A 

>  <Target> (236)
Others

>  <Form> (236)
Free Base

>  <CAS> (236)
10083-24-6

>  <URL> (236)
http://www.selleckchem.com/products/piceatannol.html

$$$$
SotrastaurinAEB071.cdx
csChFnd80/05071909292D

 33 38  0  0  0  0  0  0  0  0999 V2000
    0.0000    6.0351    0.0000 N   0  0  0  0  0  0  0  0  0  0  0  0
    0.7000    4.8227    0.0000 C   0  0  0  0  0  0  0  0  0  0  0  0
    2.0694    5.1138    0.0000 C   0  0  0  0  0  0  0  0  0  0  0  0
    2.2157    6.5061    0.0000 C   0  0  0  0  0  0  0  0  0  0  0  0
    0.9368    7.0755    0.0000 C   0  0  0  0  0  0  0  0  0  0  0  0
    0.1306    3.5437    0.0000 O   0  0  0  0  0  0  0  0  0  0  0  0
    0.6457    8.4449    0.0000 O   0  0  0  0  0  0  0  0  0  0  0  0
    5.8531    8.6061    0.0000 N   0  0  0  0  0  0  0  0  0  0  0  0
    5.8531    7.2061    0.0000 C   0  0  0  0  0  0  0  0  0  0  0  0
    4.6406    6.5061    0.0000 N   0  0  0  0  0  0  0  0  0  0  0  0
    3.4282    7.2061    0.0000 C   0  0  0  0  0  0  0  0  0  0  0  0
    3.4282    8.6061    0.0000 C   0  0  0  0  0  0  0  0  0  0  0  0
    2.2157    9.3061    0.0000 C   0  0  0  0  0  0  0  0  0  0  0  0
    2.2157   10.7061    0.0000 C   0  0  0  0  0  0  0  0  0  0  0  0
    3.4282   11.4061    0.0000 C   0  0  0  0  0  0  0  0  0  0  0  0
    4.6406   10.7061    0.0000 C   0  0  0  0  0  0  0  0  0  0  0  0
    4.6406    9.3061    0.0000 C   0  0  0  0  0  0  0  0  0  0  0  0
    7.0655    6.5061    0.0000 N   0  0  0  0  0  0  0  0  0  0  0  0
    8.2779    7.2061    0.0000 C   0  0  0  0  0  0  0  0  0  0  0  0
    9.4904    6.5061    0.0000 C   0  0  0  0  0  0  0  0  0  0  0  0
    9.4904    5.1061    0.0000 N   0  0  0  0  0  0  0  0  0  0  0  0
    8.2779    4.4061    0.0000 C   0  0  0  0  0  0  0  0  0  0  0  0
    7.0655    5.1061    0.0000 C   0  0  0  0  0  0  0  0  0  0  0  0
   10.7028    4.4061    0.0000 C   0  0  0  0  0  0  0  0  0  0  0  0
    5.1792    3.2556    0.0000 N   0  0  0  0  0  0  0  0  0  0  0  0
    4.4792    4.4681    0.0000 C   0  0  0  0  0  0  0  0  0  0  0  0
    3.1098    4.1770    0.0000 C   0  0  0  0  0  0  0  0  0  0  0  0
    2.9635    2.7847    0.0000 C   0  0  0  0  0  0  0  0  0  0  0  0
    1.8308    1.9618    0.0000 C   0  0  0  0  0  0  0  0  0  0  0  0
    1.9772    0.5694    0.0000 C   0  0  0  0  0  0  0  0  0  0  0  0
    3.2562    0.0000    0.0000 C   0  0  0  0  0  0  0  0  0  0  0  0
    4.3888    0.8229    0.0000 C   0  0  0  0  0  0  0  0  0  0  0  0
    4.2424    2.2152    0.0000 C   0  0  0  0  0  0  0  0  0  0  0  0
  1  2  1  0  0  0  0
  2  3  1  0  0  0  0
  3  4  2  0  0  0  0
  4  5  1  0  0  0  0
  1  5  1  0  0  0  0
  2  6  2  0  0  0  0
  5  7  2  0  0  0  0
  8  9  1  0  0  0  0
  9 10  2  0  0  0  0
 10 11  1  0  0  0  0
 11 12  2  0  0  0  0
 12 13  1  0  0  0  0
 13 14  2  0  0  0  0
 14 15  1  0  0  0  0
 15 16  2  0  0  0  0
 16 17  1  0  0  0  0
  8 17  2  0  0  0  0
 12 17  1  0  0  0  0
 18 19  1  0  0  0  0
 19 20  1  0  0  0  0
 20 21  1  0  0  0  0
 21 22  1  0  0  0  0
 22 23  1  0  0  0  0
 18 23  1  0  0  0  0
 21 24  1  0  0  0  0
  9 18  1  0  0  0  0
  4 11  1  0  0  0  0
 25 26  1  0  0  0  0
 26 27  2  0  0  0  0
 27 28  1  0  0  0  0
 28 29  1  0  0  0  0
 29 30  2  0  0  0  0
 30 31  1  0  0  0  0
 31 32  2  0  0  0  0
 32 33  1  0  0  0  0
 25 33  1  0  0  0  0
 28 33  2  0  0  0  0
  3 27  1  0  0  0  0
M  END
>  <Mol_ID> (237)
996

>  <Formula> (237)
C25H22N6O2

>  <MolWeight> (237)
438.48118

>  <Cat> (237)
S2791 

>  <Name> (237)
Sotrastaurin (AEB071)

>  <Synonyms> (237)
N/A 

>  <Target> (237)
PKC 

>  <Form> (237)
Free Base

>  <CAS> (237)
425637-18-9

>  <URL> (237)
http://www.selleckchem.com/products/sotrastaurin-aeb071.html

$$$$
AZD4547.cdx
csChFnd80/05071909292D

 34 37  0  0  0  0  0  0  0  0999 V2000
    1.2082    4.1927    0.0000 C   0  0  0  0  0  0  0  0  0  0  0  0
    1.2082    2.7927    0.0000 C   0  0  0  0  0  0  0  0  0  0  0  0
    2.4207    2.0927    0.0000 C   0  0  0  0  0  0  0  0  0  0  0  0
    3.6331    2.7927    0.0000 C   0  0  0  0  0  0  0  0  0  0  0  0
    3.6331    4.1927    0.0000 C   0  0  0  0  0  0  0  0  0  0  0  0
    2.4207    4.8927    0.0000 C   0  0  0  0  0  0  0  0  0  0  0  0
    2.4207    0.6976    0.0000 O   0  0  0  0  0  0  0  0  0  0  0  0
    1.2124    0.0000    0.0000 C   0  0  0  0  0  0  0  0  0  0  0  0
    0.0000    4.8903    0.0000 O   0  0  0  0  0  0  0  0  0  0  0  0
    0.0000    6.2854    0.0000 C   0  0  0  0  0  0  0  0  0  0  0  0
    4.8413    4.8903    0.0000 C   0  0  0  0  0  0  0  0  0  0  0  0
    6.0496    4.1927    0.0000 C   0  0  0  0  0  0  0  0  0  0  0  0
    7.2578    4.8903    0.0000 C   0  0  0  0  0  0  0  0  0  0  0  0
    8.5367    4.3208    0.0000 C   0  0  0  0  0  0  0  0  0  0  0  0
    9.4735    5.3613    0.0000 C   0  0  0  0  0  0  0  0  0  0  0  0
    8.7735    6.5737    0.0000 N   0  0  0  0  0  0  0  0  0  0  0  0
    7.4041    6.2826    0.0000 N   0  0  0  0  0  0  0  0  0  0  0  0
   10.8610    5.2154    0.0000 N   0  0  0  0  0  0  0  0  0  0  0  0
   11.4285    3.9409    0.0000 C   0  0  0  0  0  0  0  0  0  0  0  0
   10.6084    2.8122    0.0000 O   0  0  0  0  0  0  0  0  0  0  0  0
   12.8160    3.7951    0.0000 C   0  0  0  0  0  0  0  0  0  0  0  0
   13.3854    2.5161    0.0000 C   0  0  0  0  0  0  0  0  0  0  0  0
   14.7777    2.3698    0.0000 C   0  0  0  0  0  0  0  0  0  0  0  0
   15.6006    3.5024    0.0000 C   0  0  0  0  0  0  0  0  0  0  0  0
   15.0312    4.7813    0.0000 C   0  0  0  0  0  0  0  0  0  0  0  0
   13.6389    4.9277    0.0000 C   0  0  0  0  0  0  0  0  0  0  0  0
   16.9881    3.3566    0.0000 N   0  0  0  0  0  0  0  0  0  0  0  0
   17.5576    2.0776    0.0000 C   0  0  0  0  0  0  0  0  0  0  0  0
   18.9499    1.9312    0.0000 C   0  0  1  0  0  0  0  0  0  0  0  0
   19.7728    3.0639    0.0000 N   0  0  0  0  0  0  0  0  0  0  0  0
   19.2034    4.3428    0.0000 C   0  0  1  0  0  0  0  0  0  0  0  0
   17.8110    4.4892    0.0000 C   0  0  0  0  0  0  0  0  0  0  0  0
   20.0234    5.4715    0.0000 C   0  0  0  0  0  0  0  0  0  0  0  0
   19.5174    0.6567    0.0000 C   0  0  0  0  0  0  0  0  0  0  0  0
  1  2  2  0  0  0  0
  2  3  1  0  0  0  0
  3  4  2  0  0  0  0
  4  5  1  0  0  0  0
  5  6  2  0  0  0  0
  6  1  1  0  0  0  0
  3  7  1  0  0  0  0
  7  8  1  0  0  0  0
  1  9  1  0  0  0  0
  9 10  1  0  0  0  0
  5 11  1  0  0  0  0
 11 12  1  0  0  0  0
 12 13  1  0  0  0  0
 13 14  2  0  0  0  0
 14 15  1  0  0  0  0
 15 16  2  0  0  0  0
 16 17  1  0  0  0  0
 17 13  1  0  0  0  0
 15 18  1  0  0  0  0
 18 19  1  0  0  0  0
 19 20  2  0  0  0  0
 19 21  1  0  0  0  0
 21 22  2  0  0  0  0
 22 23  1  0  0  0  0
 23 24  2  0  0  0  0
 24 25  1  0  0  0  0
 25 26  2  0  0  0  0
 26 21  1  0  0  0  0
 24 27  1  0  0  0  0
 27 28  1  0  0  0  0
 28 29  1  0  0  0  0
 29 30  1  0  0  0  0
 30 31  1  0  0  0  0
 31 32  1  0  0  0  0
 32 27  1  0  0  0  0
 31 33  1  1  0  0  0
 29 34  1  1  0  0  0
M  END
>  <Mol_ID> (238)
1007

>  <Formula> (238)
C26H33N5O3

>  <MolWeight> (238)
463.57192

>  <Cat> (238)
S2801 

>  <Name> (238)
AZD4547

>  <Synonyms> (238)
N/A 

>  <Target> (238)
FGFR

>  <Form> (238)
Free Base

>  <CAS> (238)
1035270-39-3

>  <URL> (238)
http://www.selleckchem.com/products/azd4547.html

$$$$
GDC-0068.cdx
csChFnd80/05071909292D

 32 35  0  0  0  0  0  0  0  0999 V2000
    4.8371    7.3546    0.0000 C   0  0  0  0  0  0  0  0  0  0  0  0
    4.8371    5.9546    0.0000 C   0  0  0  0  0  0  0  0  0  0  0  0
    6.0496    5.2546    0.0000 N   0  0  0  0  0  0  0  0  0  0  0  0
    7.2620    5.9546    0.0000 C   0  0  0  0  0  0  0  0  0  0  0  0
    7.2620    7.3546    0.0000 C   0  0  0  0  0  0  0  0  0  0  0  0
    6.0496    8.0546    0.0000 N   0  0  0  0  0  0  0  0  0  0  0  0
    6.0496    3.8595    0.0000 C   0  0  0  0  0  0  0  0  0  0  0  0
    6.0496    9.4498    0.0000 C   0  0  0  0  0  0  0  0  0  0  0  0
    4.8413   10.1473    0.0000 C   0  0  1  0  0  0  0  0  0  0  0  0
    7.2578   10.1473    0.0000 O   0  0  0  0  0  0  0  0  0  0  0  0
    3.6331    9.4498    0.0000 C   0  0  0  0  0  0  0  0  0  0  0  0
    4.8413   11.5425    0.0000 C   0  0  0  0  0  0  0  0  0  0  0  0
    6.0496   12.2400    0.0000 N   0  0  0  0  0  0  0  0  0  0  0  0
    6.0496   13.6352    0.0000 C   0  0  0  0  0  0  0  0  0  0  0  0
    7.2578   14.3328    0.0000 C   0  0  0  0  0  0  0  0  0  0  0  0
    4.8413   14.3328    0.0000 C   0  0  0  0  0  0  0  0  0  0  0  0
    2.4207   10.1498    0.0000 C   0  0  0  0  0  0  0  0  0  0  0  0
    1.2082    9.4498    0.0000 C   0  0  0  0  0  0  0  0  0  0  0  0
    1.2082    8.0498    0.0000 C   0  0  0  0  0  0  0  0  0  0  0  0
    2.4207    7.3498    0.0000 C   0  0  0  0  0  0  0  0  0  0  0  0
    3.6331    8.0498    0.0000 C   0  0  0  0  0  0  0  0  0  0  0  0
    0.0000    7.3522    0.0000 Cl  0  0  0  0  0  0  0  0  0  0  0  0
    4.8371    3.1595    0.0000 C   0  0  0  0  0  0  0  0  0  0  0  0
    4.8371    1.7595    0.0000 C   0  0  0  0  0  0  0  0  0  0  0  0
    6.0496    1.0595    0.0000 N   0  0  0  0  0  0  0  0  0  0  0  0
    7.2620    1.7595    0.0000 C   0  0  0  0  0  0  0  0  0  0  0  0
    7.2620    3.1595    0.0000 N   0  0  0  0  0  0  0  0  0  0  0  0
    3.5056    3.5921    0.0000 C   0  0  1  0  0  0  0  0  0  0  0  0
    2.6827    2.4595    0.0000 C   0  0  0  0  0  0  0  0  0  0  0  0
    3.5056    1.3269    0.0000 C   0  0  1  0  0  0  0  0  0  0  0  0
    3.0745    4.9190    0.0000 C   0  0  0  0  0  0  0  0  0  0  0  0
    3.0745    0.0000    0.0000 O   0  0  0  0  0  0  0  0  0  0  0  0
  1  2  1  0  0  0  0
  2  3  1  0  0  0  0
  3  4  1  0  0  0  0
  4  5  1  0  0  0  0
  5  6  1  0  0  0  0
  6  1  1  0  0  0  0
  3  7  1  0  0  0  0
  6  8  1  0  0  0  0
  8  9  1  0  0  0  0
  8 10  2  0  0  0  0
  9 11  1  0  0  0  0
  9 12  1  1  0  0  0
 12 13  1  0  0  0  0
 13 14  1  0  0  0  0
 14 15  1  0  0  0  0
 14 16  1  0  0  0  0
 11 17  2  0  0  0  0
 17 18  1  0  0  0  0
 18 19  2  0  0  0  0
 19 20  1  0  0  0  0
 20 21  2  0  0  0  0
 21 11  1  0  0  0  0
 19 22  1  0  0  0  0
  7 23  2  0  0  0  0
 23 24  1  0  0  0  0
 24 25  2  0  0  0  0
 25 26  1  0  0  0  0
 26 27  2  0  0  0  0
 27  7  1  0  0  0  0
 23 28  1  0  0  0  0
 28 29  1  0  0  0  0
 29 30  1  0  0  0  0
 30 24  1  0  0  0  0
 28 31  1  1  0  0  0
 30 32  1  6  0  0  0
M  END
>  <Mol_ID> (239)
1008

>  <Formula> (239)
C24H32ClN5O2

>  <MolWeight> (239)
457.99618

>  <Cat> (239)
S2808 

>  <Name> (239)
Ipatasertib (GDC-0068)

>  <Synonyms> (239)
N/A 

>  <Target> (239)
Akt 

>  <Form> (239)
Free Base

>  <CAS> (239)
1001264-89-6

>  <URL> (239)
http://www.selleckchem.com/products/gdc-0068.html

$$$$
GSK2118436.cdx
csChFnd80/05071909292D

 35 38  0  0  0  0  0  0  0  0999 V2000
    2.3062    2.3719    0.0000 C   0  0  0  0  0  0  0  0  0  0  0  0
    2.7388    1.0404    0.0000 C   0  0  0  0  0  0  0  0  0  0  0  0
    1.8020    0.0000    0.0000 C   0  0  0  0  0  0  0  0  0  0  0  0
    0.4326    0.2911    0.0000 C   0  0  0  0  0  0  0  0  0  0  0  0
    0.0000    1.6226    0.0000 C   0  0  0  0  0  0  0  0  0  0  0  0
    0.9368    2.6630    0.0000 C   0  0  0  0  0  0  0  0  0  0  0  0
    3.2430    3.4123    0.0000 S   0  0  0  0  0  0  0  0  0  0  0  0
    4.2834    2.4755    0.0000 O   0  0  0  0  0  0  0  0  0  0  0  0
    2.2026    4.3491    0.0000 O   0  0  0  0  0  0  0  0  0  0  0  0
    4.1798    4.4527    0.0000 N   0  0  0  0  0  0  0  0  0  0  0  0
    0.5042    3.9944    0.0000 F   0  0  0  0  0  0  0  0  0  0  0  0
    4.1082    0.7493    0.0000 F   0  0  0  0  0  0  0  0  0  0  0  0
    5.5492    4.1616    0.0000 C   0  0  0  0  0  0  0  0  0  0  0  0
    6.4859    5.2020    0.0000 C   0  0  0  0  0  0  0  0  0  0  0  0
    7.8554    4.9109    0.0000 C   0  0  0  0  0  0  0  0  0  0  0  0
    8.2880    3.5795    0.0000 C   0  0  0  0  0  0  0  0  0  0  0  0
    7.3512    2.5391    0.0000 C   0  0  0  0  0  0  0  0  0  0  0  0
    5.9818    2.8301    0.0000 C   0  0  0  0  0  0  0  0  0  0  0  0
    6.0533    6.5335    0.0000 F   0  0  0  0  0  0  0  0  0  0  0  0
   10.7539    7.0840    0.0000 S   0  0  0  0  0  0  0  0  0  0  0  0
    9.7135    8.0207    0.0000 C   0  0  0  0  0  0  0  0  0  0  0  0
    8.5011    7.3207    0.0000 N   0  0  0  0  0  0  0  0  0  0  0  0
    8.7921    5.9513    0.0000 C   0  0  0  0  0  0  0  0  0  0  0  0
   10.1845    5.8050    0.0000 C   0  0  0  0  0  0  0  0  0  0  0  0
    9.8598    9.4131    0.0000 C   0  0  0  0  0  0  0  0  0  0  0  0
    8.4675    9.5594    0.0000 C   0  0  0  0  0  0  0  0  0  0  0  0
   11.2522    9.2667    0.0000 C   0  0  0  0  0  0  0  0  0  0  0  0
   10.0062   10.8054    0.0000 C   0  0  0  0  0  0  0  0  0  0  0  0
   12.9845    3.3801    0.0000 C   0  0  0  0  0  0  0  0  0  0  0  0
   12.2845    4.5926    0.0000 N   0  0  0  0  0  0  0  0  0  0  0  0
   10.8845    4.5926    0.0000 C   0  0  0  0  0  0  0  0  0  0  0  0
   10.1845    3.3801    0.0000 C   0  0  0  0  0  0  0  0  0  0  0  0
   10.8845    2.1677    0.0000 C   0  0  0  0  0  0  0  0  0  0  0  0
   12.2845    2.1677    0.0000 N   0  0  0  0  0  0  0  0  0  0  0  0
   14.3845    3.3801    0.0000 N   0  0  0  0  0  0  0  0  0  0  0  0
  1  2  1  0  0  0  0
  2  3  2  0  0  0  0
  3  4  1  0  0  0  0
  4  5  2  0  0  0  0
  5  6  1  0  0  0  0
  1  6  2  0  0  0  0
  7  8  2  0  0  0  0
  7  9  2  0  0  0  0
  7 10  1  0  0  0  0
  1  7  1  0  0  0  0
  6 11  1  0  0  0  0
  2 12  1  0  0  0  0
 13 14  1  0  0  0  0
 14 15  2  0  0  0  0
 15 16  1  0  0  0  0
 16 17  2  0  0  0  0
 17 18  1  0  0  0  0
 13 18  2  0  0  0  0
 14 19  1  0  0  0  0
 20 21  1  0  0  0  0
 21 22  2  0  0  0  0
 22 23  1  0  0  0  0
 23 24  2  0  0  0  0
 20 24  1  0  0  0  0
 25 26  1  0  0  0  0
 25 27  1  0  0  0  0
 25 28  1  0  0  0  0
 21 25  1  0  0  0  0
 29 30  1  0  0  0  0
 30 31  2  0  0  0  0
 31 32  1  0  0  0  0
 32 33  2  0  0  0  0
 33 34  1  0  0  0  0
 29 34  2  0  0  0  0
 29 35  1  0  0  0  0
 24 31  1  0  0  0  0
 15 23  1  0  0  0  0
 10 13  1  0  0  0  0
M  END
>  <Mol_ID> (240)
1010

>  <Formula> (240)
C23H20F3N5O2S2

>  <MolWeight> (240)
519.5624096

>  <Cat> (240)
S2807

>  <Name> (240)
Dabrafenib (GSK2118436)

>  <Synonyms> (240)
N/A 

>  <Target> (240)
Raf

>  <Form> (240)
Free Base

>  <CAS> (240)
1195765-45-7

>  <URL> (240)
http://www.selleckchem.com/products/dabrafenib-gsk2118436a.html

$$$$
AG-879.cdx
csChFnd80/05071909292D

 22 22  0  0  0  0  0  0  0  0999 V2000
    1.4000    7.2746    0.0000 C   0  0  0  0  0  0  0  0  0  0  0  0
    2.1000    6.0622    0.0000 C   0  0  0  0  0  0  0  0  0  0  0  0
    3.5000    6.0622    0.0000 C   0  0  0  0  0  0  0  0  0  0  0  0
    0.0000    7.2746    0.0000 N   0  0  0  0  0  0  0  0  0  0  0  0
    2.1000    8.4871    0.0000 S   0  0  0  0  0  0  0  0  0  0  0  0
    1.4000    4.8497    0.0000 C   0  0  0  0  0  0  0  0  0  0  0  0
    0.7000    3.6373    0.0000 N   0  0  0  0  0  0  0  0  0  0  0  0
    4.2000    4.8497    0.0000 C   0  0  0  0  0  0  0  0  0  0  0  0
    5.6000    4.8497    0.0000 C   0  0  0  0  0  0  0  0  0  0  0  0
    6.3000    3.6373    0.0000 C   0  0  0  0  0  0  0  0  0  0  0  0
    5.6000    2.4249    0.0000 C   0  0  0  0  0  0  0  0  0  0  0  0
    4.2000    2.4249    0.0000 C   0  0  0  0  0  0  0  0  0  0  0  0
    3.5000    3.6373    0.0000 C   0  0  0  0  0  0  0  0  0  0  0  0
    6.3000    1.2124    0.0000 O   0  0  0  0  0  0  0  0  0  0  0  0
    3.5000    1.2124    0.0000 C   0  0  0  0  0  0  0  0  0  0  0  0
    2.2876    1.9124    0.0000 C   0  0  0  0  0  0  0  0  0  0  0  0
    4.7124    0.5124    0.0000 C   0  0  0  0  0  0  0  0  0  0  0  0
    2.8000    0.0000    0.0000 C   0  0  0  0  0  0  0  0  0  0  0  0
    7.7000    3.6373    0.0000 C   0  0  0  0  0  0  0  0  0  0  0  0
    7.7000    5.0373    0.0000 C   0  0  0  0  0  0  0  0  0  0  0  0
    9.1000    3.6373    0.0000 C   0  0  0  0  0  0  0  0  0  0  0  0
    7.7000    2.2373    0.0000 C   0  0  0  0  0  0  0  0  0  0  0  0
  1  2  1  0  0  0  0
  2  3  2  0  0  0  0
  1  4  1  0  0  0  0
  1  5  2  0  0  0  0
  6  7  3  0  0  0  0
  2  6  1  0  0  0  0
  8  9  1  0  0  0  0
  9 10  2  0  0  0  0
 10 11  1  0  0  0  0
 11 12  2  0  0  0  0
 12 13  1  0  0  0  0
  8 13  2  0  0  0  0
 11 14  1  0  0  0  0
 15 16  1  0  0  0  0
 15 17  1  0  0  0  0
 15 18  1  0  0  0  0
 12 15  1  0  0  0  0
 19 20  1  0  0  0  0
 19 21  1  0  0  0  0
 19 22  1  0  0  0  0
 10 19  1  0  0  0  0
  3  8  1  0  0  0  0
M  END
>  <Mol_ID> (241)
1011

>  <Formula> (241)
C18H24N2OS

>  <MolWeight> (241)
316.46096

>  <Cat> (241)
S2816

>  <Name> (241)
Tyrphostin AG 879 (AG 879)

>  <Synonyms> (241)
N/A 

>  <Target> (241)
HER2

>  <Form> (241)
Free Base

>  <CAS> (241)
148741-30-4

>  <URL> (241)
http://www.selleckchem.com/products/tyrphostin-ag-879-ag-879.html

$$$$
Torin 2.cdx
csChFnd80/05071909292D

 32 36  0  0  0  0  0  0  0  0999 V2000
    8.4870    4.2000    0.0000 N   0  0  0  0  0  0  0  0  0  0  0  0
    9.6995    4.9000    0.0000 C   0  0  0  0  0  0  0  0  0  0  0  0
   10.9119    4.2000    0.0000 C   0  0  0  0  0  0  0  0  0  0  0  0
   10.9119    2.8000    0.0000 C   0  0  0  0  0  0  0  0  0  0  0  0
    9.6995    2.1000    0.0000 C   0  0  0  0  0  0  0  0  0  0  0  0
    9.6995    0.7000    0.0000 C   0  0  0  0  0  0  0  0  0  0  0  0
    8.4870    0.0000    0.0000 N   0  0  0  0  0  0  0  0  0  0  0  0
    7.2746    0.7000    0.0000 C   0  0  0  0  0  0  0  0  0  0  0  0
    7.2746    2.1000    0.0000 C   0  0  0  0  0  0  0  0  0  0  0  0
    8.4870    2.8000    0.0000 C   0  0  0  0  0  0  0  0  0  0  0  0
    6.0622    2.8000    0.0000 C   0  0  0  0  0  0  0  0  0  0  0  0
    4.8497    2.1000    0.0000 C   0  0  0  0  0  0  0  0  0  0  0  0
    4.8497    0.7000    0.0000 C   0  0  0  0  0  0  0  0  0  0  0  0
    6.0622    0.0000    0.0000 C   0  0  0  0  0  0  0  0  0  0  0  0
    9.6995    6.3000    0.0000 O   0  0  0  0  0  0  0  0  0  0  0  0
    7.2746    4.9000    0.0000 C   0  0  0  0  0  0  0  0  0  0  0  0
    7.2746    6.3000    0.0000 C   0  0  0  0  0  0  0  0  0  0  0  0
    6.0622    7.0000    0.0000 C   0  0  0  0  0  0  0  0  0  0  0  0
    4.8497    6.3000    0.0000 C   0  0  0  0  0  0  0  0  0  0  0  0
    4.8497    4.9000    0.0000 C   0  0  0  0  0  0  0  0  0  0  0  0
    6.0622    4.2000    0.0000 C   0  0  0  0  0  0  0  0  0  0  0  0
    6.0622    8.4000    0.0000 C   0  0  0  0  0  0  0  0  0  0  0  0
    7.4622    8.4000    0.0000 F   0  0  0  0  0  0  0  0  0  0  0  0
    4.6622    8.4000    0.0000 F   0  0  0  0  0  0  0  0  0  0  0  0
    6.0622    9.8000    0.0000 F   0  0  0  0  0  0  0  0  0  0  0  0
    3.6373    4.2000    0.0000 C   0  0  0  0  0  0  0  0  0  0  0  0
    3.6373    2.8000    0.0000 C   0  0  0  0  0  0  0  0  0  0  0  0
    2.4249    2.1000    0.0000 C   0  0  0  0  0  0  0  0  0  0  0  0
    1.2124    2.8000    0.0000 C   0  0  0  0  0  0  0  0  0  0  0  0
    1.2124    4.2000    0.0000 C   0  0  0  0  0  0  0  0  0  0  0  0
    2.4249    4.9000    0.0000 N   0  0  0  0  0  0  0  0  0  0  0  0
    0.0000    4.9000    0.0000 N   0  0  0  0  0  0  0  0  0  0  0  0
  1  2  1  0  0  0  0
  2  3  1  0  0  0  0
  3  4  2  0  0  0  0
  4  5  1  0  0  0  0
  5  6  1  0  0  0  0
  6  7  2  0  0  0  0
  7  8  1  0  0  0  0
  8  9  1  0  0  0  0
  9 10  1  0  0  0  0
  1 10  1  0  0  0  0
  5 10  2  0  0  0  0
 11 12  1  0  0  0  0
 12 13  2  0  0  0  0
 13 14  1  0  0  0  0
  8 14  2  0  0  0  0
  9 11  2  0  0  0  0
  2 15  2  0  0  0  0
 16 17  1  0  0  0  0
 17 18  2  0  0  0  0
 18 19  1  0  0  0  0
 19 20  2  0  0  0  0
 20 21  1  0  0  0  0
 16 21  2  0  0  0  0
 22 23  1  0  0  0  0
 22 24  1  0  0  0  0
 22 25  1  0  0  0  0
 18 22  1  0  0  0  0
  1 16  1  0  0  0  0
 26 27  1  0  0  0  0
 27 28  2  0  0  0  0
 28 29  1  0  0  0  0
 29 30  2  0  0  0  0
 30 31  1  0  0  0  0
 26 31  2  0  0  0  0
 30 32  1  0  0  0  0
 12 27  1  0  0  0  0
M  END
>  <Mol_ID> (242)
1012

>  <Formula> (242)
C24H15F3N4O

>  <MolWeight> (242)
432.3973096

>  <Cat> (242)
S2817

>  <Name> (242)
Torin 2

>  <Synonyms> (242)
N/A 

>  <Target> (242)
mTOR

>  <Form> (242)
Free Base

>  <CAS> (242)
1223001-51-1

>  <URL> (242)
http://www.selleckchem.com/products/torin-2.html

$$$$
BYL-719.cdx
csChFnd80/05071909292D

 30 32  0  0  0  0  0  0  0  0999 V2000
   12.4888    4.2986    0.0000 N   0  0  0  0  0  0  0  0  0  0  0  0
   12.4156    5.6967    0.0000 C   0  0  1  0  0  0  0  0  0  0  0  0
   13.7226    6.1984    0.0000 C   0  0  0  0  0  0  0  0  0  0  0  0
   14.6036    5.1104    0.0000 C   0  0  0  0  0  0  0  0  0  0  0  0
   13.8411    3.9363    0.0000 C   0  0  0  0  0  0  0  0  0  0  0  0
   11.4008    3.4176    0.0000 C   0  0  0  0  0  0  0  0  0  0  0  0
   11.6198    2.0348    0.0000 O   0  0  0  0  0  0  0  0  0  0  0  0
   10.1219    3.9870    0.0000 N   0  0  0  0  0  0  0  0  0  0  0  0
   11.2414    6.4592    0.0000 C   0  0  0  0  0  0  0  0  0  0  0  0
   11.3878    7.8515    0.0000 O   0  0  0  0  0  0  0  0  0  0  0  0
    9.9625    5.8898    0.0000 N   0  0  0  0  0  0  0  0  0  0  0  0
    7.6578    3.5967    0.0000 S   0  0  0  0  0  0  0  0  0  0  0  0
    8.9892    3.1641    0.0000 C   0  0  0  0  0  0  0  0  0  0  0  0
    8.9892    1.7641    0.0000 N   0  0  0  0  0  0  0  0  0  0  0  0
    7.6578    1.3315    0.0000 C   0  0  0  0  0  0  0  0  0  0  0  0
    6.8349    2.4641    0.0000 C   0  0  0  0  0  0  0  0  0  0  0  0
    3.3349    3.6765    0.0000 C   0  0  0  0  0  0  0  0  0  0  0  0
    4.7349    3.6765    0.0000 C   0  0  0  0  0  0  0  0  0  0  0  0
    5.4349    2.4641    0.0000 C   0  0  0  0  0  0  0  0  0  0  0  0
    4.7349    1.2517    0.0000 C   0  0  0  0  0  0  0  0  0  0  0  0
    3.3349    1.2517    0.0000 C   0  0  0  0  0  0  0  0  0  0  0  0
    2.6349    2.4641    0.0000 N   0  0  0  0  0  0  0  0  0  0  0  0
    2.4249    5.2527    0.0000 C   0  0  0  0  0  0  0  0  0  0  0  0
    1.2124    4.5527    0.0000 C   0  0  0  0  0  0  0  0  0  0  0  0
    3.6373    5.9527    0.0000 C   0  0  0  0  0  0  0  0  0  0  0  0
    1.7249    6.4651    0.0000 C   0  0  0  0  0  0  0  0  0  0  0  0
    0.5124    5.7651    0.0000 F   0  0  0  0  0  0  0  0  0  0  0  0
    1.9124    3.3403    0.0000 F   0  0  0  0  0  0  0  0  0  0  0  0
    0.0000    3.8527    0.0000 F   0  0  0  0  0  0  0  0  0  0  0  0
    7.2251    0.0000    0.0000 C   0  0  0  0  0  0  0  0  0  0  0  0
  1  2  1  0  0  0  0
  2  3  1  0  0  0  0
  3  4  1  0  0  0  0
  4  5  1  0  0  0  0
  1  5  1  0  0  0  0
  6  7  2  0  0  0  0
  6  8  1  0  0  0  0
  1  6  1  0  0  0  0
  9 10  2  0  0  0  0
  9 11  1  0  0  0  0
  2  9  1  6  0  0  0
 12 13  1  0  0  0  0
 13 14  2  0  0  0  0
 14 15  1  0  0  0  0
 15 16  2  0  0  0  0
 12 16  1  0  0  0  0
 17 18  1  0  0  0  0
 18 19  2  0  0  0  0
 19 20  1  0  0  0  0
 20 21  2  0  0  0  0
 21 22  1  0  0  0  0
 17 22  2  0  0  0  0
 23 24  1  0  0  0  0
 23 25  1  0  0  0  0
 23 26  1  0  0  0  0
 24 27  1  0  0  0  0
 24 28  1  0  0  0  0
 24 29  1  0  0  0  0
 17 23  1  0  0  0  0
 16 19  1  0  0  0  0
 15 30  1  0  0  0  0
  8 13  1  0  0  0  0
M  END
>  <Mol_ID> (243)
1013

>  <Formula> (243)
C19H22F3N5O2S

>  <MolWeight> (243)
441.4704896

>  <Cat> (243)
S2814

>  <Name> (243)
Alpelisib (BYL719)

>  <Synonyms> (243)
N/A 

>  <Target> (243)
PI3K

>  <Form> (243)
Free Base

>  <CAS> (243)
1217486-61-7

>  <URL> (243)
http://www.selleckchem.com/products/byl719.html

$$$$
CEP33779.cdx
csChFnd80/05071909292D

 33 37  0  0  0  0  0  0  0  0999 V2000
    5.5903    5.2672    0.0000 C   0  0  0  0  0  0  0  0  0  0  0  0
    6.2903    4.0548    0.0000 C   0  0  0  0  0  0  0  0  0  0  0  0
    7.6903    4.0548    0.0000 C   0  0  0  0  0  0  0  0  0  0  0  0
    8.3903    5.2672    0.0000 C   0  0  0  0  0  0  0  0  0  0  0  0
    7.6903    6.4796    0.0000 C   0  0  0  0  0  0  0  0  0  0  0  0
    6.2903    6.4796    0.0000 C   0  0  0  0  0  0  0  0  0  0  0  0
    4.1951    5.2672    0.0000 N   0  0  0  0  0  0  0  0  0  0  0  0
    8.3879    7.6879    0.0000 N   0  0  0  0  0  0  0  0  0  0  0  0
    9.7830    7.6879    0.0000 C   0  0  0  0  0  0  0  0  0  0  0  0
    3.4951    6.4796    0.0000 C   0  0  0  0  0  0  0  0  0  0  0  0
    2.0951    6.4796    0.0000 C   0  0  0  0  0  0  0  0  0  0  0  0
    1.3951    5.2672    0.0000 N   0  0  0  0  0  0  0  0  0  0  0  0
    2.0951    4.0548    0.0000 C   0  0  0  0  0  0  0  0  0  0  0  0
    3.4951    4.0548    0.0000 C   0  0  0  0  0  0  0  0  0  0  0  0
    0.0000    5.2672    0.0000 C   0  0  0  0  0  0  0  0  0  0  0  0
   10.6059    6.5552    0.0000 N   0  0  0  0  0  0  0  0  0  0  0  0
   11.9374    6.9879    0.0000 C   0  0  0  0  0  0  0  0  0  0  0  0
   11.9374    8.3879    0.0000 N   0  0  0  0  0  0  0  0  0  0  0  0
   10.6059    8.8205    0.0000 N   0  0  0  0  0  0  0  0  0  0  0  0
   13.1498    6.2879    0.0000 C   0  0  0  0  0  0  0  0  0  0  0  0
   14.3622    6.9879    0.0000 C   0  0  0  0  0  0  0  0  0  0  0  0
   14.3622    8.3879    0.0000 C   0  0  0  0  0  0  0  0  0  0  0  0
   13.1498    9.0879    0.0000 C   0  0  0  0  0  0  0  0  0  0  0  0
   13.1498    4.8927    0.0000 C   0  0  0  0  0  0  0  0  0  0  0  0
   11.9374    4.1927    0.0000 C   0  0  0  0  0  0  0  0  0  0  0  0
   11.9374    2.7927    0.0000 C   0  0  0  0  0  0  0  0  0  0  0  0
   13.1498    2.0927    0.0000 C   0  0  0  0  0  0  0  0  0  0  0  0
   14.3622    2.7927    0.0000 C   0  0  0  0  0  0  0  0  0  0  0  0
   14.3622    4.1927    0.0000 C   0  0  0  0  0  0  0  0  0  0  0  0
   13.1498    0.6976    0.0000 S   0  0  0  0  0  0  0  0  0  0  0  0
   11.9416    0.0000    0.0000 O   0  0  0  0  0  0  0  0  0  0  0  0
   14.3580    0.0000    0.0000 C   0  0  0  0  0  0  0  0  0  0  0  0
   14.3580    1.3951    0.0000 O   0  0  0  0  0  0  0  0  0  0  0  0
  1  2  2  0  0  0  0
  2  3  1  0  0  0  0
  3  4  2  0  0  0  0
  4  5  1  0  0  0  0
  5  6  2  0  0  0  0
  6  1  1  0  0  0  0
  1  7  1  0  0  0  0
  5  8  1  0  0  0  0
  8  9  1  0  0  0  0
  7 10  1  0  0  0  0
 10 11  1  0  0  0  0
 11 12  1  0  0  0  0
 12 13  1  0  0  0  0
 13 14  1  0  0  0  0
 14  7  1  0  0  0  0
 12 15  1  0  0  0  0
  9 16  1  0  0  0  0
 16 17  2  0  0  0  0
 17 18  1  0  0  0  0
 18 19  1  0  0  0  0
 19  9  2  0  0  0  0
 17 20  1  0  0  0  0
 20 21  2  0  0  0  0
 21 22  1  0  0  0  0
 22 23  2  0  0  0  0
 23 18  1  0  0  0  0
 20 24  1  0  0  0  0
 24 25  2  0  0  0  0
 25 26  1  0  0  0  0
 26 27  2  0  0  0  0
 27 28  1  0  0  0  0
 28 29  2  0  0  0  0
 29 24  1  0  0  0  0
 27 30  1  0  0  0  0
 30 31  2  0  0  0  0
 30 32  1  0  0  0  0
 30 33  2  0  0  0  0
M  END
>  <Mol_ID> (244)
1015

>  <Formula> (244)
C24H26N6O2S

>  <MolWeight> (244)
462.56724

>  <Cat> (244)
S2806 

>  <Name> (244)
CEP33779

>  <Synonyms> (244)
N/A

>  <Target> (244)
JAK

>  <Form> (244)
Free Base

>  <CAS> (244)
1257704-57-6

>  <URL> (244)
http://www.selleckchem.com/products/cep33779.html

$$$$
NVP-TAE226.cdx
csChFnd80/05071909292D

 33 36  0  0  0  0  0  0  0  0999 V2000
    3.6331    4.1927    0.0000 C   0  0  0  0  0  0  0  0  0  0  0  0
    3.6331    2.7927    0.0000 C   0  0  0  0  0  0  0  0  0  0  0  0
    4.8455    2.0927    0.0000 C   0  0  0  0  0  0  0  0  0  0  0  0
    6.0580    2.7927    0.0000 C   0  0  0  0  0  0  0  0  0  0  0  0
    6.0580    4.1927    0.0000 C   0  0  0  0  0  0  0  0  0  0  0  0
    4.8455    4.8927    0.0000 C   0  0  0  0  0  0  0  0  0  0  0  0
    4.8455    0.6976    0.0000 O   0  0  0  0  0  0  0  0  0  0  0  0
    6.0538    0.0000    0.0000 C   0  0  0  0  0  0  0  0  0  0  0  0
    7.2662    2.0951    0.0000 N   0  0  0  0  0  0  0  0  0  0  0  0
    8.4744    2.7927    0.0000 C   0  0  0  0  0  0  0  0  0  0  0  0
    9.6869    2.0927    0.0000 N   0  0  0  0  0  0  0  0  0  0  0  0
   10.8993    2.7927    0.0000 C   0  0  0  0  0  0  0  0  0  0  0  0
   10.8993    4.1927    0.0000 C   0  0  0  0  0  0  0  0  0  0  0  0
    9.6869    4.8927    0.0000 C   0  0  0  0  0  0  0  0  0  0  0  0
    8.4744    4.1927    0.0000 N   0  0  0  0  0  0  0  0  0  0  0  0
   12.1075    4.8903    0.0000 Cl  0  0  0  0  0  0  0  0  0  0  0  0
   12.1075    2.0951    0.0000 N   0  0  0  0  0  0  0  0  0  0  0  0
   13.3157    2.7927    0.0000 C   0  0  0  0  0  0  0  0  0  0  0  0
   14.5282    2.0927    0.0000 C   0  0  0  0  0  0  0  0  0  0  0  0
   15.7406    2.7927    0.0000 C   0  0  0  0  0  0  0  0  0  0  0  0
   15.7406    4.1927    0.0000 C   0  0  0  0  0  0  0  0  0  0  0  0
   14.5282    4.8927    0.0000 C   0  0  0  0  0  0  0  0  0  0  0  0
   13.3157    4.1927    0.0000 C   0  0  0  0  0  0  0  0  0  0  0  0
   14.5282    0.6976    0.0000 C   0  0  0  0  0  0  0  0  0  0  0  0
   15.7364    0.0000    0.0000 N   0  0  0  0  0  0  0  0  0  0  0  0
   13.3200    0.0000    0.0000 O   0  0  0  0  0  0  0  0  0  0  0  0
   16.9446    0.6976    0.0000 C   0  0  0  0  0  0  0  0  0  0  0  0
    2.4249    4.8903    0.0000 N   0  0  0  0  0  0  0  0  0  0  0  0
    2.4249    6.2903    0.0000 C   0  0  0  0  0  0  0  0  0  0  0  0
    1.2124    6.9903    0.0000 C   0  0  0  0  0  0  0  0  0  0  0  0
    0.0000    6.2903    0.0000 O   0  0  0  0  0  0  0  0  0  0  0  0
    0.0000    4.8903    0.0000 C   0  0  0  0  0  0  0  0  0  0  0  0
    1.2124    4.1903    0.0000 C   0  0  0  0  0  0  0  0  0  0  0  0
  1  2  2  0  0  0  0
  2  3  1  0  0  0  0
  3  4  2  0  0  0  0
  4  5  1  0  0  0  0
  5  6  2  0  0  0  0
  6  1  1  0  0  0  0
  3  7  1  0  0  0  0
  7  8  1  0  0  0  0
  4  9  1  0  0  0  0
  9 10  1  0  0  0  0
 10 11  2  0  0  0  0
 11 12  1  0  0  0  0
 12 13  2  0  0  0  0
 13 14  1  0  0  0  0
 14 15  2  0  0  0  0
 15 10  1  0  0  0  0
 13 16  1  0  0  0  0
 12 17  1  0  0  0  0
 17 18  1  0  0  0  0
 18 19  2  0  0  0  0
 19 20  1  0  0  0  0
 20 21  2  0  0  0  0
 21 22  1  0  0  0  0
 22 23  2  0  0  0  0
 23 18  1  0  0  0  0
 19 24  1  0  0  0  0
 24 25  1  0  0  0  0
 24 26  2  0  0  0  0
 25 27  1  0  0  0  0
  1 28  1  0  0  0  0
 28 29  1  0  0  0  0
 29 30  1  0  0  0  0
 30 31  1  0  0  0  0
 31 32  1  0  0  0  0
 32 33  1  0  0  0  0
 33 28  1  0  0  0  0
M  END
>  <Mol_ID> (245)
1019

>  <Formula> (245)
C23H25ClN6O3

>  <MolWeight> (245)
468.936

>  <Cat> (245)
S2820

>  <Name> (245)
NVP-TAE226

>  <Synonyms> (245)
N/A 

>  <Target> (245)
FAK

>  <Form> (245)
Free Base

>  <CAS> (245)
761437-28-9

>  <URL> (245)
http://www.selleckchem.com/products/nvp-tae226.html

$$$$
CP 673451.cdx
csChFnd80/05071909292D

 31 35  0  0  0  0  0  0  0  0999 V2000
    0.0000    7.6903    0.0000 C   0  0  0  0  0  0  0  0  0  0  0  0
    0.0000    6.2903    0.0000 C   0  0  0  0  0  0  0  0  0  0  0  0
    1.2124    5.5903    0.0000 C   0  0  0  0  0  0  0  0  0  0  0  0
    2.4249    6.2903    0.0000 C   0  0  0  0  0  0  0  0  0  0  0  0
    2.4249    7.6903    0.0000 C   0  0  0  0  0  0  0  0  0  0  0  0
    1.2124    8.3903    0.0000 C   0  0  0  0  0  0  0  0  0  0  0  0
    3.6373    5.5903    0.0000 N   0  0  0  0  0  0  0  0  0  0  0  0
    4.8497    6.2903    0.0000 C   0  0  0  0  0  0  0  0  0  0  0  0
    4.8497    7.6903    0.0000 C   0  0  0  0  0  0  0  0  0  0  0  0
    3.6373    8.3903    0.0000 C   0  0  0  0  0  0  0  0  0  0  0  0
   10.0688    6.8227    0.0000 C   0  0  0  0  0  0  0  0  0  0  0  0
    9.0440    7.7766    0.0000 C   0  0  0  0  0  0  0  0  0  0  0  0
    7.7056    7.3661    0.0000 C   0  0  0  0  0  0  0  0  0  0  0  0
    7.3918    6.0018    0.0000 C   0  0  0  0  0  0  0  0  0  0  0  0
    8.4165    5.0478    0.0000 C   0  0  0  0  0  0  0  0  0  0  0  0
    9.7550    5.4583    0.0000 C   0  0  0  0  0  0  0  0  0  0  0  0
   11.4026    7.2317    0.0000 O   0  0  0  0  0  0  0  0  0  0  0  0
   11.7153    8.5914    0.0000 C   0  0  0  0  0  0  0  0  0  0  0  0
   13.0491    9.0004    0.0000 C   0  0  0  0  0  0  0  0  0  0  0  0
   13.3618   10.3601    0.0000 O   0  0  0  0  0  0  0  0  0  0  0  0
   14.6956   10.7691    0.0000 C   0  0  0  0  0  0  0  0  0  0  0  0
    6.0580    5.5927    0.0000 N   0  0  0  0  0  0  0  0  0  0  0  0
    8.1038    3.6882    0.0000 N   0  0  0  0  0  0  0  0  0  0  0  0
    6.4362    3.9479    0.0000 C   0  0  0  0  0  0  0  0  0  0  0  0
    2.4249    2.0951    0.0000 C   0  0  0  0  0  0  0  0  0  0  0  0
    2.4249    3.4951    0.0000 C   0  0  0  0  0  0  0  0  0  0  0  0
    1.2124    4.1951    0.0000 N   0  0  0  0  0  0  0  0  0  0  0  0
    0.0000    3.4951    0.0000 C   0  0  0  0  0  0  0  0  0  0  0  0
    0.0000    2.0951    0.0000 C   0  0  0  0  0  0  0  0  0  0  0  0
    1.2124    1.3951    0.0000 C   0  0  0  0  0  0  0  0  0  0  0  0
    1.2124    0.0000    0.0000 N   0  0  0  0  0  0  0  0  0  0  0  0
  1  2  2  0  0  0  0
  2  3  1  0  0  0  0
  3  4  2  0  0  0  0
  4  5  1  0  0  0  0
  5  6  2  0  0  0  0
  6  1  1  0  0  0  0
  4  7  1  0  0  0  0
  7  8  2  0  0  0  0
  8  9  1  0  0  0  0
  9 10  2  0  0  0  0
 10  5  1  0  0  0  0
 11 12  2  0  0  0  0
 12 13  1  0  0  0  0
 13 14  2  0  0  0  0
 14 15  1  0  0  0  0
 15 16  2  0  0  0  0
 16 11  1  0  0  0  0
 11 17  1  0  0  0  0
 17 18  1  0  0  0  0
 18 19  1  0  0  0  0
 19 20  1  0  0  0  0
 20 21  1  0  0  0  0
 14 22  1  0  0  0  0
 15 23  1  0  0  0  0
  8 22  1  0  0  0  0
 22 24  1  0  0  0  0
 24 23  2  0  0  0  0
 25 26  1  0  0  0  0
 26 27  1  0  0  0  0
 27 28  1  0  0  0  0
 28 29  1  0  0  0  0
 29 30  1  0  0  0  0
 30 25  1  0  0  0  0
 30 31  1  0  0  0  0
  3 27  1  0  0  0  0
M  END
>  <Mol_ID> (246)
1022

>  <Formula> (246)
C24H27N5O2

>  <MolWeight> (246)
417.50348

>  <Cat> (246)
S1536

>  <Name> (246)
CP 673451

>  <Synonyms> (246)
CP673451 

>  <Target> (246)
Others

>  <Form> (246)
Free Base

>  <CAS> (246)
343787-29-1

>  <URL> (246)
http://www.selleckchem.com/products/CP-673451.html

$$$$
PHA.cdx
csChFnd80/05071909292D

 16 18  0  0  0  0  0  0  0  0999 V2000
    0.0000    2.1000    0.0000 C   0  0  0  0  0  0  0  0  0  0  0  0
    0.0000    0.7000    0.0000 N   0  0  0  0  0  0  0  0  0  0  0  0
    1.2124    0.0000    0.0000 C   0  0  0  0  0  0  0  0  0  0  0  0
    2.4249    0.7000    0.0000 C   0  0  0  0  0  0  0  0  0  0  0  0
    2.4249    2.1000    0.0000 C   0  0  0  0  0  0  0  0  0  0  0  0
    1.2124    2.8000    0.0000 C   0  0  0  0  0  0  0  0  0  0  0  0
    3.6331    2.7976    0.0000 C   0  0  0  0  0  0  0  0  0  0  0  0
    4.9121    2.2281    0.0000 N   0  0  0  0  0  0  0  0  0  0  0  0
    5.8488    3.2685    0.0000 C   0  0  0  0  0  0  0  0  0  0  0  0
    5.1488    4.4810    0.0000 C   0  0  0  0  0  0  0  0  0  0  0  0
    3.7794    4.1899    0.0000 C   0  0  0  0  0  0  0  0  0  0  0  0
    7.2488    3.2685    0.0000 C   0  0  0  0  0  0  0  0  0  0  0  0
    7.9488    4.4810    0.0000 C   0  0  0  0  0  0  0  0  0  0  0  0
    7.2488    5.6934    0.0000 N   0  0  0  0  0  0  0  0  0  0  0  0
    5.8488    5.6934    0.0000 C   0  0  0  0  0  0  0  0  0  0  0  0
    5.1513    6.9016    0.0000 O   0  0  0  0  0  0  0  0  0  0  0  0
  1  2  2  0  0  0  0
  2  3  1  0  0  0  0
  3  4  2  0  0  0  0
  4  5  1  0  0  0  0
  5  6  2  0  0  0  0
  6  1  1  0  0  0  0
  5  7  1  0  0  0  0
  7  8  1  0  0  0  0
  8  9  1  0  0  0  0
  9 10  2  0  0  0  0
 10 11  1  0  0  0  0
 11  7  2  0  0  0  0
  9 12  1  0  0  0  0
 12 13  1  0  0  0  0
 13 14  1  0  0  0  0
 14 15  1  0  0  0  0
 15 10  1  0  0  0  0
 15 16  2  0  0  0  0
M  END
>  <Mol_ID> (247)
1035

>  <Formula> (247)
C12H11N3O

>  <MolWeight> (247)
213.23524

>  <Cat> (247)
S2742

>  <Name> (247)
PHA-767491

>  <Synonyms> (247)
N/A 

>  <Target> (247)
CDK

>  <Form> (247)
Free Base

>  <CAS> (247)
845714-00-3

>  <URL> (247)
http://www.selleckchem.com/products/pha-767491.html

$$$$
TPCA-1.cdx
csChFnd80/05071909292D

 19 20  0  0  0  0  0  0  0  0999 V2000
    2.4249    2.8000    0.0000 C   0  0  0  0  0  0  0  0  0  0  0  0
    2.5712    4.1923    0.0000 C   0  0  0  0  0  0  0  0  0  0  0  0
    3.9406    4.4834    0.0000 C   0  0  0  0  0  0  0  0  0  0  0  0
    4.6406    3.2710    0.0000 C   0  0  0  0  0  0  0  0  0  0  0  0
    3.7038    2.2306    0.0000 S   0  0  0  0  0  0  0  0  0  0  0  0
    1.5308    5.1291    0.0000 C   0  0  0  0  0  0  0  0  0  0  0  0
    1.8219    6.4985    0.0000 O   0  0  0  0  0  0  0  0  0  0  0  0
    0.2238    4.6274    0.0000 N   0  0  0  0  0  0  0  0  0  0  0  0
    6.0330    3.1246    0.0000 C   0  0  0  0  0  0  0  0  0  0  0  0
    6.8558    4.2573    0.0000 C   0  0  0  0  0  0  0  0  0  0  0  0
    8.2482    4.1109    0.0000 C   0  0  0  0  0  0  0  0  0  0  0  0
    8.8176    2.8320    0.0000 C   0  0  0  0  0  0  0  0  0  0  0  0
    7.9947    1.6993    0.0000 C   0  0  0  0  0  0  0  0  0  0  0  0
    6.6024    1.8457    0.0000 C   0  0  0  0  0  0  0  0  0  0  0  0
   10.2099    2.6856    0.0000 F   0  0  0  0  0  0  0  0  0  0  0  0
    1.2124    2.1000    0.0000 N   0  0  0  0  0  0  0  0  0  0  0  0
    1.2124    0.7000    0.0000 C   0  0  0  0  0  0  0  0  0  0  0  0
    0.0000    0.0000    0.0000 O   0  0  0  0  0  0  0  0  0  0  0  0
    2.4249    0.0000    0.0000 N   0  0  0  0  0  0  0  0  0  0  0  0
  1  2  2  0  0  0  0
  2  3  1  0  0  0  0
  3  4  2  0  0  0  0
  4  5  1  0  0  0  0
  1  5  1  0  0  0  0
  6  7  2  0  0  0  0
  6  8  1  0  0  0  0
  2  6  1  0  0  0  0
  9 10  1  0  0  0  0
 10 11  2  0  0  0  0
 11 12  1  0  0  0  0
 12 13  2  0  0  0  0
 13 14  1  0  0  0  0
  9 14  2  0  0  0  0
 12 15  1  0  0  0  0
  4  9  1  0  0  0  0
 17 18  2  0  0  0  0
 17 19  1  0  0  0  0
 16 17  1  0  0  0  0
  1 16  1  0  0  0  0
M  END
>  <Mol_ID> (248)
1040

>  <Formula> (248)
C12H10FN3O2S

>  <MolWeight> (248)
279.2901032

>  <Cat> (248)
S2824

>  <Name> (248)
TPCA-1

>  <Synonyms> (248)
N/A 

>  <Target> (248)
IKK

>  <Form> (248)
Free Base

>  <CAS> (248)
507475-17-4

>  <URL> (248)
http://www.selleckchem.com/products/tpca-1.html

$$$$
AZD 6482.cdx
csChFnd80/05071909292D

 30 33  0  0  0  0  0  0  0  0999 V2000
   10.9119    2.8000    0.0000 C   0  0  0  0  0  0  0  0  0  0  0  0
    9.6995    2.1000    0.0000 C   0  0  0  0  0  0  0  0  0  0  0  0
    8.4870    2.8000    0.0000 C   0  0  0  0  0  0  0  0  0  0  0  0
    7.2746    2.1000    0.0000 C   0  0  0  0  0  0  0  0  0  0  0  0
    7.2746    0.7000    0.0000 C   0  0  0  0  0  0  0  0  0  0  0  0
    8.4870    0.0000    0.0000 C   0  0  0  0  0  0  0  0  0  0  0  0
    9.6995    0.7000    0.0000 C   0  0  0  0  0  0  0  0  0  0  0  0
   10.9119    4.2000    0.0000 O   0  0  0  0  0  0  0  0  0  0  0  0
   12.1244    2.1000    0.0000 O   0  0  0  0  0  0  0  0  0  0  0  0
    8.4870    4.2000    0.0000 N   0  0  0  0  0  0  0  0  0  0  0  0
    7.2746    4.9000    0.0000 C   0  0  2  0  0  0  0  0  0  0  0  0
    6.0622    4.2000    0.0000 C   0  0  0  0  0  0  0  0  0  0  0  0
    6.0622    7.0000    0.0000 C   0  0  0  0  0  0  0  0  0  0  0  0
    4.8497    6.3000    0.0000 N   0  0  0  0  0  0  0  0  0  0  0  0
    3.6373    7.0000    0.0000 C   0  0  0  0  0  0  0  0  0  0  0  0
    3.6373    8.4000    0.0000 C   0  0  0  0  0  0  0  0  0  0  0  0
    4.8497    9.1000    0.0000 C   0  0  0  0  0  0  0  0  0  0  0  0
    6.0622    8.4000    0.0000 N   0  0  0  0  0  0  0  0  0  0  0  0
    7.2746    6.3000    0.0000 C   0  0  0  0  0  0  0  0  0  0  0  0
    8.4870    7.0000    0.0000 C   0  0  0  0  0  0  0  0  0  0  0  0
    8.4870    8.4000    0.0000 C   0  0  0  0  0  0  0  0  0  0  0  0
    7.2746    9.1000    0.0000 C   0  0  0  0  0  0  0  0  0  0  0  0
    4.8497   10.5000    0.0000 O   0  0  0  0  0  0  0  0  0  0  0  0
    0.0000    6.3000    0.0000 C   0  0  0  0  0  0  0  0  0  0  0  0
    1.2124    7.0000    0.0000 C   0  0  0  0  0  0  0  0  0  0  0  0
    2.4249    6.3000    0.0000 N   0  0  0  0  0  0  0  0  0  0  0  0
    2.4249    4.9000    0.0000 C   0  0  0  0  0  0  0  0  0  0  0  0
    1.2124    4.2000    0.0000 C   0  0  0  0  0  0  0  0  0  0  0  0
    0.0000    4.9000    0.0000 O   0  0  0  0  0  0  0  0  0  0  0  0
    9.6995    9.1000    0.0000 C   0  0  0  0  0  0  0  0  0  0  0  0
  1  2  1  0  0  0  0
  2  3  1  0  0  0  0
  3  4  2  0  0  0  0
  4  5  1  0  0  0  0
  5  6  2  0  0  0  0
  6  7  1  0  0  0  0
  2  7  2  0  0  0  0
  1  8  2  0  0  0  0
  1  9  1  0  0  0  0
 11 12  1  6  0  0  0
 13 14  2  0  0  0  0
 14 15  1  0  0  0  0
 15 16  2  0  0  0  0
 16 17  1  0  0  0  0
 17 18  1  0  0  0  0
 13 18  1  0  0  0  0
 19 20  2  0  0  0  0
 20 21  1  0  0  0  0
 21 22  2  0  0  0  0
 18 22  1  0  0  0  0
 13 19  1  0  0  0  0
 17 23  2  0  0  0  0
 24 25  1  0  0  0  0
 25 26  1  0  0  0  0
 26 27  1  0  0  0  0
 27 28  1  0  0  0  0
 28 29  1  0  0  0  0
 24 29  1  0  0  0  0
 15 26  1  0  0  0  0
 21 30  1  0  0  0  0
 11 19  1  0  0  0  0
 10 11  1  0  0  0  0
  3 10  1  0  0  0  0
M  END
>  <Mol_ID> (249)
1063

>  <Formula> (249)
C22H24N4O4

>  <MolWeight> (249)
408.45036

>  <Cat> (249)
S1462

>  <Name> (249)
AZD6482

>  <Synonyms> (249)
N/A 

>  <Target> (249)
PI3K

>  <Form> (249)
Free Base

>  <CAS> (249)
1173900-33-8

>  <URL> (249)
http://www.selleckchem.com/products/azd6482.html

$$$$
Varlitinib(ARRY-334543).cdx
csChFnd80/05071909292D

 32 36  0  0  0  0  0  0  0  0999 V2000
    8.4446    7.9737    0.0000 C   0  0  0  0  0  0  0  0  0  0  0  0
    8.4446    6.5737    0.0000 C   0  0  0  0  0  0  0  0  0  0  0  0
    9.6570    5.8737    0.0000 C   0  0  0  0  0  0  0  0  0  0  0  0
   10.8694    6.5737    0.0000 N   0  0  0  0  0  0  0  0  0  0  0  0
   10.8694    7.9737    0.0000 C   0  0  0  0  0  0  0  0  0  0  0  0
    9.6570    8.6737    0.0000 N   0  0  0  0  0  0  0  0  0  0  0  0
    7.2321    8.6737    0.0000 C   0  0  0  0  0  0  0  0  0  0  0  0
    6.0197    7.9737    0.0000 C   0  0  0  0  0  0  0  0  0  0  0  0
    6.0197    6.5737    0.0000 C   0  0  0  0  0  0  0  0  0  0  0  0
    7.2321    5.8737    0.0000 C   0  0  0  0  0  0  0  0  0  0  0  0
    4.8115    5.8761    0.0000 N   0  0  0  0  0  0  0  0  0  0  0  0
    3.6032    6.5737    0.0000 C   0  0  0  0  0  0  0  0  0  0  0  0
    9.6570    4.4785    0.0000 N   0  0  0  0  0  0  0  0  0  0  0  0
   10.8652    3.7810    0.0000 C   0  0  0  0  0  0  0  0  0  0  0  0
   10.8652    2.3810    0.0000 C   0  0  0  0  0  0  0  0  0  0  0  0
   12.0777    1.6810    0.0000 C   0  0  0  0  0  0  0  0  0  0  0  0
   13.2901    2.3810    0.0000 C   0  0  0  0  0  0  0  0  0  0  0  0
   13.2901    3.7810    0.0000 C   0  0  0  0  0  0  0  0  0  0  0  0
   12.0777    4.4810    0.0000 C   0  0  0  0  0  0  0  0  0  0  0  0
   12.0777    0.2858    0.0000 Cl  0  0  0  0  0  0  0  0  0  0  0  0
   14.4983    1.6834    0.0000 O   0  0  0  0  0  0  0  0  0  0  0  0
   15.7066    2.3810    0.0000 C   0  0  0  0  0  0  0  0  0  0  0  0
   16.9148    1.6834    0.0000 C   0  0  0  0  0  0  0  0  0  0  0  0
   17.0611    0.2911    0.0000 S   0  0  0  0  0  0  0  0  0  0  0  0
   18.4305    0.0000    0.0000 C   0  0  0  0  0  0  0  0  0  0  0  0
   19.1305    1.2124    0.0000 C   0  0  0  0  0  0  0  0  0  0  0  0
   18.1937    2.2528    0.0000 N   0  0  0  0  0  0  0  0  0  0  0  0
    3.4569    7.9660    0.0000 O   0  0  0  0  0  0  0  0  0  0  0  0
    2.0875    8.2571    0.0000 C   0  0  0  0  0  0  0  0  0  0  0  0
    1.3875    7.0447    0.0000 C   0  0  2  0  0  0  0  0  0  0  0  0
    2.3243    6.0043    0.0000 N   0  0  0  0  0  0  0  0  0  0  0  0
    0.0000    6.8988    0.0000 C   0  0  0  0  0  0  0  0  0  0  0  0
  1  2  2  0  0  0  0
  2  3  1  0  0  0  0
  3  4  2  0  0  0  0
  4  5  1  0  0  0  0
  5  6  2  0  0  0  0
  6  1  1  0  0  0  0
  1  7  1  0  0  0  0
  7  8  2  0  0  0  0
  8  9  1  0  0  0  0
  9 10  2  0  0  0  0
 10  2  1  0  0  0  0
  9 11  1  0  0  0  0
 11 12  1  0  0  0  0
  3 13  1  0  0  0  0
 13 14  1  0  0  0  0
 14 15  2  0  0  0  0
 15 16  1  0  0  0  0
 16 17  2  0  0  0  0
 17 18  1  0  0  0  0
 18 19  2  0  0  0  0
 19 14  1  0  0  0  0
 16 20  1  0  0  0  0
 17 21  1  0  0  0  0
 21 22  1  0  0  0  0
 22 23  1  0  0  0  0
 23 24  1  0  0  0  0
 24 25  1  0  0  0  0
 25 26  2  0  0  0  0
 26 27  1  0  0  0  0
 27 23  2  0  0  0  0
 12 28  1  0  0  0  0
 28 29  1  0  0  0  0
 29 30  1  0  0  0  0
 30 31  1  0  0  0  0
 31 12  2  0  0  0  0
 30 32  1  6  0  0  0
M  END
>  <Mol_ID> (250)
1064

>  <Formula> (250)
C22H19ClN6O2S

>  <MolWeight> (250)
466.94326

>  <Cat> (250)
S2755

>  <Name> (250)
Varlitinib

>  <Synonyms> (250)
ARRY334543

>  <Target> (250)
EGFR

>  <Form> (250)
Free Base

>  <CAS> (250)
845272-21-1

>  <URL> (250)
http://www.selleckchem.com/products/arry334543.html

$$$$
Tideglusib.cdx
csChFnd80/05071909292D

 24 27  0  0  0  0  0  0  0  0999 V2000
    5.0229    0.3903    0.0000 S   0  0  0  0  0  0  0  0  0  0  0  0
    4.2000    1.5229    0.0000 N   0  0  0  0  0  0  0  0  0  0  0  0
    5.0229    2.6555    0.0000 C   0  0  0  0  0  0  0  0  0  0  0  0
    6.3544    2.2229    0.0000 N   0  0  0  0  0  0  0  0  0  0  0  0
    6.3544    0.8229    0.0000 C   0  0  0  0  0  0  0  0  0  0  0  0
    4.5903    3.9870    0.0000 O   0  0  0  0  0  0  0  0  0  0  0  0
    7.4870    0.0000    0.0000 O   0  0  0  0  0  0  0  0  0  0  0  0
    7.4870    3.0458    0.0000 C   0  0  0  0  0  0  0  0  0  0  0  0
    8.7660    2.4764    0.0000 C   0  0  0  0  0  0  0  0  0  0  0  0
    9.8986    3.2993    0.0000 C   0  0  0  0  0  0  0  0  0  0  0  0
   11.1776    2.7298    0.0000 C   0  0  0  0  0  0  0  0  0  0  0  0
   11.3239    1.3375    0.0000 C   0  0  0  0  0  0  0  0  0  0  0  0
   10.1913    0.5146    0.0000 C   0  0  0  0  0  0  0  0  0  0  0  0
    8.9123    1.0840    0.0000 C   0  0  0  0  0  0  0  0  0  0  0  0
    2.8000    1.5229    0.0000 C   0  0  0  0  0  0  0  0  0  0  0  0
    2.1000    0.3105    0.0000 C   0  0  0  0  0  0  0  0  0  0  0  0
    0.7000    0.3105    0.0000 C   0  0  0  0  0  0  0  0  0  0  0  0
    0.0000    1.5229    0.0000 C   0  0  0  0  0  0  0  0  0  0  0  0
    0.7000    2.7353    0.0000 C   0  0  0  0  0  0  0  0  0  0  0  0
    0.0000    3.9478    0.0000 C   0  0  0  0  0  0  0  0  0  0  0  0
    0.7000    5.1602    0.0000 C   0  0  0  0  0  0  0  0  0  0  0  0
    2.1000    5.1602    0.0000 C   0  0  0  0  0  0  0  0  0  0  0  0
    2.8000    3.9478    0.0000 C   0  0  0  0  0  0  0  0  0  0  0  0
    2.1000    2.7353    0.0000 C   0  0  0  0  0  0  0  0  0  0  0  0
  1  2  1  0  0  0  0
  2  3  1  0  0  0  0
  3  4  1  0  0  0  0
  4  5  1  0  0  0  0
  1  5  1  0  0  0  0
  3  6  2  0  0  0  0
  5  7  2  0  0  0  0
  9 10  1  0  0  0  0
 10 11  2  0  0  0  0
 11 12  1  0  0  0  0
 12 13  2  0  0  0  0
 13 14  1  0  0  0  0
  9 14  2  0  0  0  0
  8  9  1  0  0  0  0
  4  8  1  0  0  0  0
 15 16  1  0  0  0  0
 16 17  2  0  0  0  0
 17 18  1  0  0  0  0
 18 19  2  0  0  0  0
 19 20  1  0  0  0  0
 20 21  2  0  0  0  0
 21 22  1  0  0  0  0
 22 23  2  0  0  0  0
 23 24  1  0  0  0  0
 15 24  2  0  0  0  0
 19 24  1  0  0  0  0
  2 15  1  0  0  0  0
M  END
>  <Mol_ID> (251)
1069

>  <Formula> (251)
C19H14N2O2S

>  <MolWeight> (251)
334.39166

>  <Cat> (251)
S2823

>  <Name> (251)
Tideglusib

>  <Synonyms> (251)
N/A 

>  <Target> (251)
GSK-3

>  <Form> (251)
Free Base

>  <CAS> (251)
865854-05-3 

>  <URL> (251)
http://www.selleckchem.com/products/tideglusib.html

$$$$
Semaxanib.cdx
csChFnd80/05071909292D

 18 20  0  0  0  0  0  0  0  0999 V2000
    0.0000    2.1000    0.0000 C   0  0  0  0  0  0  0  0  0  0  0  0
    0.0000    0.7000    0.0000 C   0  0  0  0  0  0  0  0  0  0  0  0
    1.2124    0.0000    0.0000 C   0  0  0  0  0  0  0  0  0  0  0  0
    2.4249    0.7000    0.0000 C   0  0  0  0  0  0  0  0  0  0  0  0
    2.4249    2.1000    0.0000 C   0  0  0  0  0  0  0  0  0  0  0  0
    1.2124    2.8000    0.0000 C   0  0  0  0  0  0  0  0  0  0  0  0
    3.7563    0.2674    0.0000 N   0  0  0  0  0  0  0  0  0  0  0  0
    4.5792    1.4000    0.0000 C   0  0  0  0  0  0  0  0  0  0  0  0
    3.7563    2.5326    0.0000 C   0  0  0  0  0  0  0  0  0  0  0  0
    4.1890    3.8641    0.0000 C   0  0  0  0  0  0  0  0  0  0  0  0
    5.5584    4.1552    0.0000 C   0  0  0  0  0  0  0  0  0  0  0  0
    5.9792    1.4000    0.0000 O   0  0  0  0  0  0  0  0  0  0  0  0
    6.5988    3.2184    0.0000 N   0  0  0  0  0  0  0  0  0  0  0  0
    7.8112    3.9184    0.0000 C   0  0  0  0  0  0  0  0  0  0  0  0
    7.5201    5.2878    0.0000 C   0  0  0  0  0  0  0  0  0  0  0  0
    6.1278    5.4341    0.0000 C   0  0  0  0  0  0  0  0  0  0  0  0
    9.0902    3.3490    0.0000 C   0  0  0  0  0  0  0  0  0  0  0  0
    5.4278    6.6466    0.0000 C   0  0  0  0  0  0  0  0  0  0  0  0
  1  2  2  0  0  0  0
  2  3  1  0  0  0  0
  3  4  2  0  0  0  0
  4  5  1  0  0  0  0
  5  6  2  0  0  0  0
  6  1  1  0  0  0  0
  4  7  1  0  0  0  0
  7  8  1  0  0  0  0
  8  9  1  0  0  0  0
  9  5  1  0  0  0  0
  9 10  2  0  0  0  0
 10 11  1  0  0  0  0
  8 12  2  0  0  0  0
 11 13  1  0  0  0  0
 13 14  1  0  0  0  0
 14 15  2  0  0  0  0
 15 16  1  0  0  0  0
 16 11  2  0  0  0  0
 14 17  1  0  0  0  0
 16 18  1  0  0  0  0
M  END
>  <Mol_ID> (252)
1078

>  <Formula> (252)
C15H14N2O

>  <MolWeight> (252)
238.28446

>  <Cat> (252)
S2845

>  <Name> (252)
Semaxanib (SU5416)

>  <Synonyms> (252)
N/A 

>  <Target> (252)
VEGFR

>  <Form> (252)
Free Base

>  <CAS> (252)
194413-58-6

>  <URL> (252)
http://www.selleckchem.com/products/semaxanib-su5416.html

$$$$
SAR131675.cdx
csChFnd80/05071909292D

 26 27  0  0  0  0  0  0  0  0999 V2000
    7.2773    5.1210    0.0000 C   0  0  0  0  0  0  0  0  0  0  0  0
    7.2773    3.7161    0.0000 C   0  0  0  0  0  0  0  0  0  0  0  0
    8.4940    3.0137    0.0000 N   0  0  0  0  0  0  0  0  0  0  0  0
    9.7106    3.7161    0.0000 C   0  0  0  0  0  0  0  0  0  0  0  0
    9.7106    5.1210    0.0000 C   0  0  0  0  0  0  0  0  0  0  0  0
    8.4940    5.8234    0.0000 C   0  0  0  0  0  0  0  0  0  0  0  0
    6.0607    5.8234    0.0000 C   0  0  0  0  0  0  0  0  0  0  0  0
    4.8440    5.1210    0.0000 C   0  0  0  0  0  0  0  0  0  0  0  0
    4.8440    3.7161    0.0000 C   0  0  0  0  0  0  0  0  0  0  0  0
    6.0607    3.0137    0.0000 N   0  0  0  0  0  0  0  0  0  0  0  0
    8.4940    1.6137    0.0000 C   0  0  0  0  0  0  0  0  0  0  0  0
    7.2815    0.9137    0.0000 C   0  0  0  0  0  0  0  0  0  0  0  0
    8.4940    7.2234    0.0000 O   0  0  0  0  0  0  0  0  0  0  0  0
   10.9231    5.8210    0.0000 C   0  0  0  0  0  0  0  0  0  0  0  0
   10.9231    7.2210    0.0000 N   0  0  0  0  0  0  0  0  0  0  0  0
   12.1355    5.1210    0.0000 O   0  0  0  0  0  0  0  0  0  0  0  0
   12.1355    7.9210    0.0000 C   0  0  0  0  0  0  0  0  0  0  0  0
   10.9231    3.0161    0.0000 N   0  0  0  0  0  0  0  0  0  0  0  0
    3.6316    3.0161    0.0000 C   0  0  0  0  0  0  0  0  0  0  0  0
    2.4218    2.3186    0.0000 C   0  0  0  0  0  0  0  0  0  0  0  0
    1.2120    1.6210    0.0000 C   0  0  2  0  0  0  0  0  0  0  0  0
    0.0000    2.3217    0.0000 O   0  0  0  0  0  0  0  0  0  0  0  0
    1.2113    0.2210    0.0000 C   0  0  0  0  0  0  0  0  0  0  0  0
    2.2054    0.6276    0.0000 C   0  0  0  0  0  0  0  0  0  0  0  0
    3.5577    0.9899    0.0000 O   0  0  0  0  0  0  0  0  0  0  0  0
    4.5477    0.0000    0.0000 C   0  0  0  0  0  0  0  0  0  0  0  0
  1  2  1  0  0  0  0
  2  3  1  0  0  0  0
  3  4  1  0  0  0  0
  4  5  2  0  0  0  0
  5  6  1  0  0  0  0
  6  1  1  0  0  0  0
  1  7  2  0  0  0  0
  7  8  1  0  0  0  0
  8  9  2  0  0  0  0
  9 10  1  0  0  0  0
 10  2  2  0  0  0  0
  3 11  1  0  0  0  0
 11 12  1  0  0  0  0
  6 13  2  0  0  0  0
  5 14  1  0  0  0  0
 14 15  1  0  0  0  0
 14 16  2  0  0  0  0
 15 17  1  0  0  0  0
  4 18  1  0  0  0  0
  9 19  1  0  0  0  0
 19 20  3  0  0  0  0
 20 21  1  0  0  0  0
 21 22  1  0  0  0  0
 21 23  1  1  0  0  0
 21 24  1  6  0  0  0
 24 25  1  0  0  0  0
 25 26  1  0  0  0  0
M  END
>  <Mol_ID> (253)
1079

>  <Formula> (253)
C18H22N4O4

>  <MolWeight> (253)
358.39168

>  <Cat> (253)
S2842

>  <Name> (253)
SAR131675

>  <Synonyms> (253)
N/A 

>  <Target> (253)
VEGFR

>  <Form> (253)
Free Base

>  <CAS> (253)
N/A

>  <URL> (253)
http://www.selleckchem.com/products/sar131675.html

$$$$
IMD0354.cdx
csChFnd80/05071909292D

 25 26  0  0  0  0  0  0  0  0999 V2000
    0.0000    3.5073    0.0000 C   0  0  0  0  0  0  0  0  0  0  0  0
    0.0000    2.1024    0.0000 C   0  0  0  0  0  0  0  0  0  0  0  0
    1.2167    1.4000    0.0000 C   0  0  0  0  0  0  0  0  0  0  0  0
    2.4333    2.1024    0.0000 C   0  0  0  0  0  0  0  0  0  0  0  0
    2.4333    3.5073    0.0000 C   0  0  0  0  0  0  0  0  0  0  0  0
    1.2167    4.2098    0.0000 C   0  0  0  0  0  0  0  0  0  0  0  0
    3.6458    4.2073    0.0000 C   0  0  0  0  0  0  0  0  0  0  0  0
    4.8582    3.5073    0.0000 N   0  0  0  0  0  0  0  0  0  0  0  0
    3.6458    5.6073    0.0000 O   0  0  0  0  0  0  0  0  0  0  0  0
    1.2167    5.6098    0.0000 O   0  0  0  0  0  0  0  0  0  0  0  0
    1.2167    0.0000    0.0000 Cl  0  0  0  0  0  0  0  0  0  0  0  0
    6.0706    4.2073    0.0000 C   0  0  0  0  0  0  0  0  0  0  0  0
    7.2873    3.5049    0.0000 C   0  0  0  0  0  0  0  0  0  0  0  0
    8.5039    4.2073    0.0000 C   0  0  0  0  0  0  0  0  0  0  0  0
    8.5039    5.6122    0.0000 C   0  0  0  0  0  0  0  0  0  0  0  0
    7.2873    6.3146    0.0000 C   0  0  0  0  0  0  0  0  0  0  0  0
    6.0706    5.6122    0.0000 C   0  0  0  0  0  0  0  0  0  0  0  0
    7.2873    7.7146    0.0000 C   0  0  0  0  0  0  0  0  0  0  0  0
    8.4997    8.4146    0.0000 F   0  0  0  0  0  0  0  0  0  0  0  0
    6.0748    8.4146    0.0000 F   0  0  0  0  0  0  0  0  0  0  0  0
    7.2873    9.1146    0.0000 F   0  0  0  0  0  0  0  0  0  0  0  0
    9.7164    3.5073    0.0000 C   0  0  0  0  0  0  0  0  0  0  0  0
   10.9288    4.2073    0.0000 F   0  0  0  0  0  0  0  0  0  0  0  0
    9.7164    2.1073    0.0000 F   0  0  0  0  0  0  0  0  0  0  0  0
    9.7164    4.9073    0.0000 F   0  0  0  0  0  0  0  0  0  0  0  0
  1  2  2  0  0  0  0
  2  3  1  0  0  0  0
  3  4  2  0  0  0  0
  4  5  1  0  0  0  0
  5  6  2  0  0  0  0
  6  1  1  0  0  0  0
  5  7  1  0  0  0  0
  7  8  1  0  0  0  0
  7  9  2  0  0  0  0
  6 10  1  0  0  0  0
  3 11  1  0  0  0  0
  8 12  1  0  0  0  0
 12 13  2  0  0  0  0
 13 14  1  0  0  0  0
 14 15  2  0  0  0  0
 15 16  1  0  0  0  0
 16 17  2  0  0  0  0
 17 12  1  0  0  0  0
 16 18  1  0  0  0  0
 18 19  1  0  0  0  0
 18 20  1  0  0  0  0
 18 21  1  0  0  0  0
 14 22  1  0  0  0  0
 22 23  1  0  0  0  0
 22 24  1  0  0  0  0
 22 25  1  0  0  0  0
M  END
>  <Mol_ID> (254)
1086

>  <Formula> (254)
C15H8ClF6NO2

>  <MolWeight> (254)
383.6729392

>  <Cat> (254)
S2864

>  <Name> (254)
IMD0354

>  <Synonyms> (254)
N/A

>  <Target> (254)
IKK

>  <Form> (254)
Free Base

>  <CAS> (254)
978-62-1

>  <URL> (254)
http://www.selleckchem.com/products/imd-0354.html

$$$$
E7050.cdx
csChFnd80/05071909292D

 46 51  0  0  0  0  0  0  0  0999 V2000
   13.3115   10.4879    0.0000 C   0  0  0  0  0  0  0  0  0  0  0  0
   13.3115    9.0879    0.0000 C   0  0  0  0  0  0  0  0  0  0  0  0
   14.5240    8.3879    0.0000 C   0  0  0  0  0  0  0  0  0  0  0  0
   15.7364    9.0879    0.0000 C   0  0  0  0  0  0  0  0  0  0  0  0
   15.7364   10.4879    0.0000 C   0  0  0  0  0  0  0  0  0  0  0  0
   14.5240   11.1879    0.0000 C   0  0  0  0  0  0  0  0  0  0  0  0
   14.5240   12.5830    0.0000 F   0  0  0  0  0  0  0  0  0  0  0  0
   16.9446   11.1854    0.0000 N   0  0  0  0  0  0  0  0  0  0  0  0
   18.1529   10.4879    0.0000 C   0  0  0  0  0  0  0  0  0  0  0  0
   19.3611   11.1854    0.0000 C   0  0  0  0  0  0  0  0  0  0  0  0
   18.1529    9.0927    0.0000 O   0  0  0  0  0  0  0  0  0  0  0  0
   20.5693   10.4879    0.0000 C   0  0  0  0  0  0  0  0  0  0  0  0
   21.7775   11.1854    0.0000 N   0  0  0  0  0  0  0  0  0  0  0  0
   20.5693    9.0927    0.0000 O   0  0  0  0  0  0  0  0  0  0  0  0
   20.0611   12.3979    0.0000 C   0  0  0  0  0  0  0  0  0  0  0  0
   18.6611   12.3979    0.0000 C   0  0  0  0  0  0  0  0  0  0  0  0
   22.9858   10.4879    0.0000 C   0  0  0  0  0  0  0  0  0  0  0  0
   22.9858    9.0879    0.0000 C   0  0  0  0  0  0  0  0  0  0  0  0
   24.1982    8.3879    0.0000 C   0  0  0  0  0  0  0  0  0  0  0  0
   25.4106    9.0879    0.0000 C   0  0  0  0  0  0  0  0  0  0  0  0
   25.4106   10.4879    0.0000 C   0  0  0  0  0  0  0  0  0  0  0  0
   24.1982   11.1879    0.0000 C   0  0  0  0  0  0  0  0  0  0  0  0
   26.6189    8.3903    0.0000 F   0  0  0  0  0  0  0  0  0  0  0  0
   12.1033    8.3903    0.0000 O   0  0  0  0  0  0  0  0  0  0  0  0
   12.1033    6.9951    0.0000 C   0  0  0  0  0  0  0  0  0  0  0  0
   10.8909    6.2951    0.0000 C   0  0  0  0  0  0  0  0  0  0  0  0
   10.8909    4.8951    0.0000 C   0  0  0  0  0  0  0  0  0  0  0  0
   12.1033    4.1951    0.0000 N   0  0  0  0  0  0  0  0  0  0  0  0
   13.3158    4.8951    0.0000 C   0  0  0  0  0  0  0  0  0  0  0  0
   13.3158    6.2951    0.0000 C   0  0  0  0  0  0  0  0  0  0  0  0
    9.6827    4.1976    0.0000 N   0  0  0  0  0  0  0  0  0  0  0  0
    8.4744    4.8951    0.0000 C   0  0  0  0  0  0  0  0  0  0  0  0
    7.2662    4.1976    0.0000 N   0  0  0  0  0  0  0  0  0  0  0  0
    8.4744    6.2903    0.0000 O   0  0  0  0  0  0  0  0  0  0  0  0
    6.0538    4.8976    0.0000 C   0  0  0  0  0  0  0  0  0  0  0  0
    4.8413    4.1976    0.0000 C   0  0  0  0  0  0  0  0  0  0  0  0
    4.8413    2.7976    0.0000 C   0  0  0  0  0  0  0  0  0  0  0  0
    6.0538    2.0976    0.0000 C   0  0  0  0  0  0  0  0  0  0  0  0
    7.2662    2.7976    0.0000 C   0  0  0  0  0  0  0  0  0  0  0  0
    3.6331    2.1000    0.0000 N   0  0  0  0  0  0  0  0  0  0  0  0
    2.4207    2.8000    0.0000 C   0  0  0  0  0  0  0  0  0  0  0  0
    1.2082    2.1000    0.0000 C   0  0  0  0  0  0  0  0  0  0  0  0
    1.2082    0.7000    0.0000 N   0  0  0  0  0  0  0  0  0  0  0  0
    2.4207    0.0000    0.0000 C   0  0  0  0  0  0  0  0  0  0  0  0
    3.6331    0.7000    0.0000 C   0  0  0  0  0  0  0  0  0  0  0  0
    0.0000    0.0024    0.0000 C   0  0  0  0  0  0  0  0  0  0  0  0
  1  2  2  0  0  0  0
  2  3  1  0  0  0  0
  3  4  2  0  0  0  0
  4  5  1  0  0  0  0
  5  6  2  0  0  0  0
  6  1  1  0  0  0  0
  6  7  1  0  0  0  0
  5  8  1  0  0  0  0
  8  9  1  0  0  0  0
  9 10  1  0  0  0  0
  9 11  2  0  0  0  0
 10 12  1  0  0  0  0
 12 13  1  0  0  0  0
 12 14  2  0  0  0  0
 10 15  1  0  0  0  0
 15 16  1  0  0  0  0
 16 10  1  0  0  0  0
 13 17  1  0  0  0  0
 17 18  2  0  0  0  0
 18 19  1  0  0  0  0
 19 20  2  0  0  0  0
 20 21  1  0  0  0  0
 21 22  2  0  0  0  0
 22 17  1  0  0  0  0
 20 23  1  0  0  0  0
  2 24  1  0  0  0  0
 24 25  1  0  0  0  0
 25 26  2  0  0  0  0
 26 27  1  0  0  0  0
 27 28  2  0  0  0  0
 28 29  1  0  0  0  0
 29 30  2  0  0  0  0
 30 25  1  0  0  0  0
 27 31  1  0  0  0  0
 31 32  1  0  0  0  0
 32 33  1  0  0  0  0
 32 34  2  0  0  0  0
 33 35  1  0  0  0  0
 35 36  1  0  0  0  0
 36 37  1  0  0  0  0
 37 38  1  0  0  0  0
 38 39  1  0  0  0  0
 39 33  1  0  0  0  0
 37 40  1  0  0  0  0
 40 41  1  0  0  0  0
 41 42  1  0  0  0  0
 42 43  1  0  0  0  0
 43 44  1  0  0  0  0
 44 45  1  0  0  0  0
 45 40  1  0  0  0  0
 43 46  1  0  0  0  0
M  END
>  <Mol_ID> (255)
1089

>  <Formula> (255)
C33H37F2N7O4

>  <MolWeight> (255)
633.6881864

>  <Cat> (255)
S2859

>  <Name> (255)
Golvatinib (E7050) 

>  <Synonyms> (255)
E7050

>  <Target> (255)
c-Met, VEGFR

>  <Form> (255)
Free Base

>  <CAS> (255)
928037-13-2

>  <URL> (255)
http://www.selleckchem.com/products/golvatinib-e7050.html

$$$$
WHI-P154.cdx
csChFnd80/05071909292D

 23 25  0  0  0  0  0  0  0  0999 V2000
    4.9000    4.8497    0.0000 N   0  0  0  0  0  0  0  0  0  0  0  0
    6.3000    4.8497    0.0000 C   0  0  0  0  0  0  0  0  0  0  0  0
    7.0000    3.6373    0.0000 N   0  0  0  0  0  0  0  0  0  0  0  0
    6.3000    2.4249    0.0000 C   0  0  0  0  0  0  0  0  0  0  0  0
    4.9000    2.4249    0.0000 C   0  0  0  0  0  0  0  0  0  0  0  0
    4.2000    1.2124    0.0000 C   0  0  0  0  0  0  0  0  0  0  0  0
    2.8000    1.2124    0.0000 C   0  0  0  0  0  0  0  0  0  0  0  0
    2.1000    2.4249    0.0000 C   0  0  0  0  0  0  0  0  0  0  0  0
    2.8000    3.6373    0.0000 C   0  0  0  0  0  0  0  0  0  0  0  0
    4.2000    3.6373    0.0000 C   0  0  0  0  0  0  0  0  0  0  0  0
    0.7000    2.4249    0.0000 O   0  0  0  0  0  0  0  0  0  0  0  0
    0.0000    3.6373    0.0000 C   0  0  0  0  0  0  0  0  0  0  0  0
    2.1000    0.0000    0.0000 O   0  0  0  0  0  0  0  0  0  0  0  0
    0.7000    0.0000    0.0000 C   0  0  0  0  0  0  0  0  0  0  0  0
    7.0000    1.2124    0.0000 N   0  0  0  0  0  0  0  0  0  0  0  0
    8.4000    1.2124    0.0000 C   0  0  0  0  0  0  0  0  0  0  0  0
    9.1000    2.4249    0.0000 C   0  0  0  0  0  0  0  0  0  0  0  0
   10.5000    2.4249    0.0000 C   0  0  0  0  0  0  0  0  0  0  0  0
   11.2000    1.2124    0.0000 C   0  0  0  0  0  0  0  0  0  0  0  0
   10.5000    0.0000    0.0000 C   0  0  0  0  0  0  0  0  0  0  0  0
    9.1000    0.0000    0.0000 C   0  0  0  0  0  0  0  0  0  0  0  0
   12.6000    1.2124    0.0000 O   0  0  0  0  0  0  0  0  0  0  0  0
   11.2000    3.6373    0.0000 Br  0  0  0  0  0  0  0  0  0  0  0  0
  1  2  1  0  0  0  0
  2  3  2  0  0  0  0
  3  4  1  0  0  0  0
  4  5  2  0  0  0  0
  5  6  1  0  0  0  0
  6  7  2  0  0  0  0
  7  8  1  0  0  0  0
  8  9  2  0  0  0  0
  9 10  1  0  0  0  0
  1 10  2  0  0  0  0
  5 10  1  0  0  0  0
 11 12  1  0  0  0  0
  8 11  1  0  0  0  0
 13 14  1  0  0  0  0
  7 13  1  0  0  0  0
 16 17  1  0  0  0  0
 17 18  2  0  0  0  0
 18 19  1  0  0  0  0
 19 20  2  0  0  0  0
 20 21  1  0  0  0  0
 16 21  2  0  0  0  0
 19 22  1  0  0  0  0
 18 23  1  0  0  0  0
 15 16  1  0  0  0  0
  4 15  1  0  0  0  0
M  END
>  <Mol_ID> (256)
1091

>  <Formula> (256)
C16H14BrN3O3

>  <MolWeight> (256)
376.20466

>  <Cat> (256)
S2867

>  <Name> (256)
WHI-P154

>  <Synonyms> (256)
N/A

>  <Target> (256)
JAK, EGFR

>  <Form> (256)
Free Base

>  <CAS> (256)
211555-04-3

>  <URL> (256)
http://www.selleckchem.com/products/whi-p154.html

$$$$
Schisandrin B.cdx
csChFnd80/05071909292D

 29 32  0  0  0  0  0  0  0  0999 V2000
    4.6194    3.6241    0.0000 C   0  0  0  0  0  0  0  0  0  0  0  0
    5.5559    4.6647    0.0000 C   0  0  0  0  0  0  0  0  0  0  0  0
    3.4069    4.3479    0.0000 C   0  0  0  0  0  0  0  0  0  0  0  0
    4.6194    2.2395    0.0000 C   0  0  0  0  0  0  0  0  0  0  0  0
    6.9451    4.6647    0.0000 C   0  0  0  0  0  0  0  0  0  0  0  0
    4.8366    5.8772    0.0000 C   0  0  0  0  0  0  0  0  0  0  0  0
    2.1762    3.6375    0.0000 C   0  0  0  0  0  0  0  0  0  0  0  0
    3.4069    5.2844    0.0000 O   0  0  0  0  0  0  0  0  0  0  0  0
    3.4069    1.5158    0.0000 C   0  0  0  0  0  0  0  0  0  0  0  0
    5.6148    1.1989    0.0000 C   0  0  0  0  0  0  0  0  0  0  0  0
    7.6643    5.8772    0.0000 C   0  0  0  0  0  0  0  0  0  0  0  0
    7.9268    3.6241    0.0000 C   0  0  0  0  0  0  0  0  0  0  0  0
    5.5424    7.1033    0.0000 C   0  0  0  0  0  0  0  0  0  0  0  0
    3.7235    5.8772    0.0000 O   0  0  0  0  0  0  0  0  0  0  0  0
    2.1762    2.2259    0.0000 C   0  0  0  0  0  0  0  0  0  0  0  0
    0.8052    4.0584    0.0000 O   0  0  0  0  0  0  0  0  0  0  0  0
    2.3074    5.8185    0.0000 C   0  0  0  0  0  0  0  0  0  0  0  0
    7.0445    1.1989    0.0000 C   0  0  2  0  0  0  0  0  0  0  0  0
    6.9585    7.1033    0.0000 C   0  0  0  0  0  0  0  0  0  0  0  0
    7.9268    2.2395    0.0000 C   0  0  1  0  0  0  0  0  0  0  0  0
    4.8637    8.2752    0.0000 O   0  0  0  0  0  0  0  0  0  0  0  0
    3.0902    6.7279    0.0000 C   0  0  0  0  0  0  0  0  0  0  0  0
    0.8777    1.7781    0.0000 O   0  0  0  0  0  0  0  0  0  0  0  0
    0.0000    2.9181    0.0000 C   0  0  0  0  0  0  0  0  0  0  0  0
    7.6780    0.0000    0.0000 C   0  0  0  0  0  0  0  0  0  0  0  0
    7.6371    8.2752    0.0000 O   0  0  0  0  0  0  0  0  0  0  0  0
    9.1936    1.7464    0.0000 C   0  0  0  0  0  0  0  0  0  0  0  0
    5.5288    9.4288    0.0000 C   0  0  0  0  0  0  0  0  0  0  0  0
    8.9810    8.2752    0.0000 C   0  0  0  0  0  0  0  0  0  0  0  0
  1  2  1  0  0  0  0
  1  3  1  0  0  0  0
  1  4  2  0  0  0  0
  2  5  2  0  0  0  0
  2  6  1  0  0  0  0
  3  7  2  0  0  0  0
  3  8  1  0  0  0  0
  4  9  1  0  0  0  0
  4 10  1  0  0  0  0
  5 11  1  0  0  0  0
  5 12  1  0  0  0  0
  6 13  2  0  0  0  0
  6 14  1  0  0  0  0
  7 15  1  0  0  0  0
  7 16  1  0  0  0  0
  8 17  1  0  0  0  0
  9 15  2  0  0  0  0
 10 18  1  0  0  0  0
 11 19  2  0  0  0  0
 12 20  1  0  0  0  0
 13 21  1  0  0  0  0
 13 19  1  0  0  0  0
 14 22  1  0  0  0  0
 15 23  1  0  0  0  0
 16 24  1  0  0  0  0
 18 25  1  6  0  0  0
 18 20  1  0  0  0  0
 19 26  1  0  0  0  0
 20 27  1  6  0  0  0
 21 28  1  0  0  0  0
 23 24  1  0  0  0  0
 26 29  1  0  0  0  0
M  END
>  <Mol_ID> (257)
1109

>  <Formula> (257)
C23H28O6

>  <MolWeight> (257)
400.46482

>  <Cat> (257)
S3600

>  <Name> (257)
Schisandrin B

>  <Synonyms> (257)
N/A

>  <Target> (257)
Others

>  <Form> (257)
Free Base

>  <CAS> (257)
61281-37-6

>  <URL> (257)
http://www.selleckchem.com/products/schisandrin-b.html

$$$$
IKK-16.cdx
csChFnd80/05071909292D

 35 40  0  0  0  0  0  0  0  0999 V2000
   12.9671    1.2124    0.0000 C   0  0  0  0  0  0  0  0  0  0  0  0
   12.2671    0.0000    0.0000 C   0  0  0  0  0  0  0  0  0  0  0  0
   10.8671    0.0000    0.0000 C   0  0  0  0  0  0  0  0  0  0  0  0
   10.1671    1.2124    0.0000 C   0  0  0  0  0  0  0  0  0  0  0  0
   10.8671    2.4249    0.0000 C   0  0  0  0  0  0  0  0  0  0  0  0
   12.2671    2.4249    0.0000 C   0  0  0  0  0  0  0  0  0  0  0  0
    8.7720    1.2124    0.0000 N   0  0  0  0  0  0  0  0  0  0  0  0
    8.0744    2.4207    0.0000 C   0  0  0  0  0  0  0  0  0  0  0  0
    6.6744    2.4207    0.0000 N   0  0  0  0  0  0  0  0  0  0  0  0
    5.9744    3.6331    0.0000 C   0  0  0  0  0  0  0  0  0  0  0  0
    6.6744    4.8455    0.0000 C   0  0  0  0  0  0  0  0  0  0  0  0
    8.0744    4.8455    0.0000 C   0  0  0  0  0  0  0  0  0  0  0  0
    8.7744    3.6331    0.0000 N   0  0  0  0  0  0  0  0  0  0  0  0
    2.4249    4.3331    0.0000 C   0  0  0  0  0  0  0  0  0  0  0  0
    2.4249    2.9331    0.0000 C   0  0  0  0  0  0  0  0  0  0  0  0
    3.7564    2.5005    0.0000 S   0  0  0  0  0  0  0  0  0  0  0  0
    4.5793    3.6331    0.0000 C   0  0  0  0  0  0  0  0  0  0  0  0
    3.7564    4.7657    0.0000 C   0  0  0  0  0  0  0  0  0  0  0  0
    1.2124    2.2331    0.0000 C   0  0  0  0  0  0  0  0  0  0  0  0
    0.0000    2.9331    0.0000 C   0  0  0  0  0  0  0  0  0  0  0  0
    0.0000    4.3331    0.0000 C   0  0  0  0  0  0  0  0  0  0  0  0
    1.2124    5.0331    0.0000 C   0  0  0  0  0  0  0  0  0  0  0  0
   14.3622    1.2124    0.0000 C   0  0  0  0  0  0  0  0  0  0  0  0
   15.0598    0.0042    0.0000 O   0  0  0  0  0  0  0  0  0  0  0  0
   15.0598    2.4207    0.0000 N   0  0  0  0  0  0  0  0  0  0  0  0
   14.3598    3.6331    0.0000 C   0  0  0  0  0  0  0  0  0  0  0  0
   15.0598    4.8455    0.0000 C   0  0  0  0  0  0  0  0  0  0  0  0
   16.4598    4.8455    0.0000 C   0  0  0  0  0  0  0  0  0  0  0  0
   17.1598    3.6331    0.0000 C   0  0  0  0  0  0  0  0  0  0  0  0
   16.4598    2.4207    0.0000 C   0  0  0  0  0  0  0  0  0  0  0  0
   17.1574    6.0538    0.0000 N   0  0  0  0  0  0  0  0  0  0  0  0
   16.5880    7.3327    0.0000 C   0  0  0  0  0  0  0  0  0  0  0  0
   17.6284    8.2695    0.0000 C   0  0  0  0  0  0  0  0  0  0  0  0
   18.8408    7.5695    0.0000 C   0  0  0  0  0  0  0  0  0  0  0  0
   18.5497    6.2001    0.0000 C   0  0  0  0  0  0  0  0  0  0  0  0
  1  2  1  0  0  0  0
  2  3  2  0  0  0  0
  3  4  1  0  0  0  0
  4  5  2  0  0  0  0
  5  6  1  0  0  0  0
  1  6  2  0  0  0  0
  8  9  1  0  0  0  0
  9 10  2  0  0  0  0
 10 11  1  0  0  0  0
 11 12  2  0  0  0  0
 12 13  1  0  0  0  0
  8 13  2  0  0  0  0
  7  8  1  0  0  0  0
 14 15  1  0  0  0  0
 15 16  1  0  0  0  0
 17 18  2  0  0  0  0
 14 18  1  0  0  0  0
 19 20  1  0  0  0  0
 20 21  2  0  0  0  0
 21 22  1  0  0  0  0
 14 22  2  0  0  0  0
 15 19  2  0  0  0  0
 10 17  1  0  0  0  0
  4  7  1  0  0  0  0
 23 24  2  0  0  0  0
  1 23  1  0  0  0  0
 25 26  1  0  0  0  0
 26 27  1  0  0  0  0
 27 28  1  0  0  0  0
 28 29  1  0  0  0  0
 29 30  1  0  0  0  0
 25 30  1  0  0  0  0
 31 32  1  0  0  0  0
 32 33  1  0  0  0  0
 33 34  1  0  0  0  0
 34 35  1  0  0  0  0
 31 35  1  0  0  0  0
 28 31  1  0  0  0  0
 17 16  1  0  0  0  0
 23 25  1  0  0  0  0
M  END
>  <Mol_ID> (258)
1122

>  <Formula> (258)
C28H29N5OS

>  <MolWeight> (258)
483.62776

>  <Cat> (258)
S2882

>  <Name> (258)
IKK-16

>  <Synonyms> (258)
N/A

>  <Target> (258)
IKK

>  <Form> (258)
Free Base

>  <CAS> (258)
873225-46-8

>  <URL> (258)
http://www.selleckchem.com/products/ikk-16.html

$$$$
PF-562271.cdx
csChFnd80/05071909292D

 35 38  0  0  0  0  0  0  0  0999 V2000
    1.2124    5.6000    0.0000 C   0  0  0  0  0  0  0  0  0  0  0  0
    1.2124    4.2000    0.0000 N   0  0  0  0  0  0  0  0  0  0  0  0
    2.4249    3.5000    0.0000 C   0  0  0  0  0  0  0  0  0  0  0  0
    3.6373    4.2000    0.0000 C   0  0  0  0  0  0  0  0  0  0  0  0
    3.6373    5.6000    0.0000 C   0  0  0  0  0  0  0  0  0  0  0  0
    2.4249    6.3000    0.0000 C   0  0  0  0  0  0  0  0  0  0  0  0
    2.4249    2.1000    0.0000 N   0  0  0  0  0  0  0  0  0  0  0  0
    3.6373    1.4000    0.0000 C   0  0  0  0  0  0  0  0  0  0  0  0
    1.2124    1.4000    0.0000 S   0  0  0  0  0  0  0  0  0  0  0  0
    0.0000    2.1000    0.0000 O   0  0  0  0  0  0  0  0  0  0  0  0
    1.2124    0.0000    0.0000 O   0  0  0  0  0  0  0  0  0  0  0  0
    1.2124    2.8000    0.0000 C   0  0  0  0  0  0  0  0  0  0  0  0
    4.8497    3.5000    0.0000 C   0  0  0  0  0  0  0  0  0  0  0  0
    6.0622    4.2000    0.0000 N   0  0  0  0  0  0  0  0  0  0  0  0
    7.2746    3.5000    0.0000 C   0  0  0  0  0  0  0  0  0  0  0  0
    7.2746    2.1000    0.0000 C   0  0  0  0  0  0  0  0  0  0  0  0
    8.4870    1.4000    0.0000 C   0  0  0  0  0  0  0  0  0  0  0  0
    9.6995    2.1000    0.0000 N   0  0  0  0  0  0  0  0  0  0  0  0
    9.6995    3.5000    0.0000 C   0  0  0  0  0  0  0  0  0  0  0  0
    8.4870    4.2000    0.0000 N   0  0  0  0  0  0  0  0  0  0  0  0
    6.0622    1.4000    0.0000 C   0  0  0  0  0  0  0  0  0  0  0  0
    4.8497    2.1000    0.0000 F   0  0  0  0  0  0  0  0  0  0  0  0
    6.0622    0.0000    0.0000 F   0  0  0  0  0  0  0  0  0  0  0  0
    6.0622    2.8000    0.0000 F   0  0  0  0  0  0  0  0  0  0  0  0
   10.9119    4.2000    0.0000 N   0  0  0  0  0  0  0  0  0  0  0  0
   12.1244    3.5000    0.0000 C   0  0  0  0  0  0  0  0  0  0  0  0
   12.1244    2.1000    0.0000 C   0  0  0  0  0  0  0  0  0  0  0  0
   13.3368    1.4000    0.0000 C   0  0  0  0  0  0  0  0  0  0  0  0
   14.5492    2.1000    0.0000 C   0  0  0  0  0  0  0  0  0  0  0  0
   14.5492    3.5000    0.0000 C   0  0  0  0  0  0  0  0  0  0  0  0
   13.3368    4.2000    0.0000 C   0  0  0  0  0  0  0  0  0  0  0  0
   15.8807    1.6674    0.0000 N   0  0  0  0  0  0  0  0  0  0  0  0
   16.7036    2.8000    0.0000 C   0  0  0  0  0  0  0  0  0  0  0  0
   15.8807    3.9326    0.0000 C   0  0  0  0  0  0  0  0  0  0  0  0
   18.1036    2.8000    0.0000 O   0  0  0  0  0  0  0  0  0  0  0  0
  1  2  2  0  0  0  0
  2  3  1  0  0  0  0
  3  4  2  0  0  0  0
  4  5  1  0  0  0  0
  5  6  2  0  0  0  0
  6  1  1  0  0  0  0
  3  7  1  0  0  0  0
  7  8  1  0  0  0  0
  7  9  1  0  0  0  0
  9 10  2  0  0  0  0
  9 11  2  0  0  0  0
  9 12  1  0  0  0  0
  4 13  1  0  0  0  0
 13 14  1  0  0  0  0
 14 15  1  0  0  0  0
 15 16  2  0  0  0  0
 16 17  1  0  0  0  0
 17 18  2  0  0  0  0
 18 19  1  0  0  0  0
 19 20  2  0  0  0  0
 20 15  1  0  0  0  0
 16 21  1  0  0  0  0
 21 22  1  0  0  0  0
 21 23  1  0  0  0  0
 21 24  1  0  0  0  0
 19 25  1  0  0  0  0
 25 26  1  0  0  0  0
 26 27  2  0  0  0  0
 27 28  1  0  0  0  0
 28 29  2  0  0  0  0
 29 30  1  0  0  0  0
 30 31  2  0  0  0  0
 31 26  1  0  0  0  0
 29 32  1  0  0  0  0
 32 33  1  0  0  0  0
 33 34  1  0  0  0  0
 34 30  1  0  0  0  0
 33 35  2  0  0  0  0
M  END
>  <Mol_ID> (259)
1126

>  <Formula> (259)
C21H20F3N7O3S

>  <MolWeight> (259)
507.4888096

>  <Cat> (259)
S2890

>  <Name> (259)
PF-562271

>  <Synonyms> (259)
N/A

>  <Form> (259)
Free Base

>  <CAS> (259)
717907-75-0

>  <URL> (259)
http://www.selleckchem.com/products/pf-562271.html

$$$$
GW 441756.cdx
csChFnd80/05071909292D

 21 24  0  0  0  0  0  0  0  0999 V2000
    0.0000    2.1000    0.0000 C   0  0  0  0  0  0  0  0  0  0  0  0
    0.0000    0.7000    0.0000 C   0  0  0  0  0  0  0  0  0  0  0  0
    1.2124    0.0000    0.0000 C   0  0  0  0  0  0  0  0  0  0  0  0
    2.4249    0.7000    0.0000 C   0  0  0  0  0  0  0  0  0  0  0  0
    2.4249    2.1000    0.0000 C   0  0  0  0  0  0  0  0  0  0  0  0
    1.2124    2.8000    0.0000 N   0  0  0  0  0  0  0  0  0  0  0  0
    3.7564    0.2674    0.0000 N   0  0  0  0  0  0  0  0  0  0  0  0
    4.5792    1.4000    0.0000 C   0  0  0  0  0  0  0  0  0  0  0  0
    3.7564    2.5326    0.0000 C   0  0  0  0  0  0  0  0  0  0  0  0
    4.1890    3.8641    0.0000 C   0  0  0  0  0  0  0  0  0  0  0  0
    5.5584    4.1552    0.0000 C   0  0  0  0  0  0  0  0  0  0  0  0
    6.5988    3.2184    0.0000 C   0  0  0  0  0  0  0  0  0  0  0  0
    7.8112    3.9184    0.0000 N   0  0  0  0  0  0  0  0  0  0  0  0
    7.5201    5.2878    0.0000 C   0  0  0  0  0  0  0  0  0  0  0  0
    6.1278    5.4341    0.0000 C   0  0  0  0  0  0  0  0  0  0  0  0
    8.3430    6.4204    0.0000 C   0  0  0  0  0  0  0  0  0  0  0  0
    7.7736    7.6994    0.0000 C   0  0  0  0  0  0  0  0  0  0  0  0
    6.3813    7.8457    0.0000 C   0  0  0  0  0  0  0  0  0  0  0  0
    5.5584    6.7131    0.0000 C   0  0  0  0  0  0  0  0  0  0  0  0
    5.9792    1.4000    0.0000 O   0  0  0  0  0  0  0  0  0  0  0  0
    9.0902    3.3490    0.0000 C   0  0  0  0  0  0  0  0  0  0  0  0
  1  2  2  0  0  0  0
  2  3  1  0  0  0  0
  3  4  2  0  0  0  0
  4  5  1  0  0  0  0
  5  6  2  0  0  0  0
  6  1  1  0  0  0  0
  4  7  1  0  0  0  0
  7  8  1  0  0  0  0
  8  9  1  0  0  0  0
  9  5  1  0  0  0  0
  9 10  2  0  0  0  0
 10 11  1  4  0  0  0
 11 12  2  0  0  0  0
 12 13  1  0  0  0  0
 13 14  1  0  0  0  0
 14 15  2  0  0  0  0
 15 11  1  0  0  0  0
 14 16  1  0  0  0  0
 16 17  2  0  0  0  0
 17 18  1  0  0  0  0
 18 19  2  0  0  0  0
 19 15  1  0  0  0  0
  8 20  2  0  0  0  0
 13 21  1  0  0  0  0
M  END
>  <Mol_ID> (260)
1130

>  <Formula> (260)
C17H13N3O

>  <MolWeight> (260)
275.30462

>  <Cat> (260)
S2891

>  <Name> (260)
GW 441756

>  <Synonyms> (260)
N/A

>  <Target> (260)
Others

>  <Form> (260)
Free Base

>  <CAS> (260)
504433-23-2

>  <URL> (260)
http://www.selleckchem.com/products/gw-441756.html

$$$$
BI-D1870.cdx
csChFnd80/05071909292D

 28 30  0  0  0  0  0  0  0  0999 V2000
    1.2082    6.2903    0.0000 C   0  0  0  0  0  0  0  0  0  0  0  0
    1.2082    4.8903    0.0000 C   0  0  0  0  0  0  0  0  0  0  0  0
    2.4207    4.1903    0.0000 C   0  0  0  0  0  0  0  0  0  0  0  0
    3.6331    4.8903    0.0000 C   0  0  0  0  0  0  0  0  0  0  0  0
    3.6331    6.2903    0.0000 C   0  0  0  0  0  0  0  0  0  0  0  0
    2.4207    6.9903    0.0000 C   0  0  0  0  0  0  0  0  0  0  0  0
    0.0000    6.9879    0.0000 O   0  0  0  0  0  0  0  0  0  0  0  0
    0.0000    4.1927    0.0000 F   0  0  0  0  0  0  0  0  0  0  0  0
    2.4207    8.3854    0.0000 F   0  0  0  0  0  0  0  0  0  0  0  0
    4.8413    4.1927    0.0000 N   0  0  0  0  0  0  0  0  0  0  0  0
    6.0496    4.8903    0.0000 C   0  0  0  0  0  0  0  0  0  0  0  0
    7.2620    4.1903    0.0000 N   0  0  0  0  0  0  0  0  0  0  0  0
    8.4744    4.8903    0.0000 C   0  0  0  0  0  0  0  0  0  0  0  0
    8.4744    6.2903    0.0000 C   0  0  0  0  0  0  0  0  0  0  0  0
    7.2620    6.9903    0.0000 C   0  0  0  0  0  0  0  0  0  0  0  0
    6.0496    6.2903    0.0000 N   0  0  0  0  0  0  0  0  0  0  0  0
    9.6869    4.1903    0.0000 N   0  0  0  0  0  0  0  0  0  0  0  0
   10.8993    4.8903    0.0000 C   0  0  3  0  0  0  0  0  0  0  0  0
   10.8993    6.2903    0.0000 C   0  0  0  0  0  0  0  0  0  0  0  0
    9.6869    6.9903    0.0000 N   0  0  0  0  0  0  0  0  0  0  0  0
    9.6869    8.3854    0.0000 C   0  0  0  0  0  0  0  0  0  0  0  0
   12.1075    6.9879    0.0000 O   0  0  0  0  0  0  0  0  0  0  0  0
    9.6869    2.7951    0.0000 C   0  0  0  0  0  0  0  0  0  0  0  0
   12.1075    4.1927    0.0000 C   0  0  0  0  0  0  0  0  0  0  0  0
   10.8951    2.0976    0.0000 C   0  0  0  0  0  0  0  0  0  0  0  0
   10.8951    0.6976    0.0000 C   0  0  0  0  0  0  0  0  0  0  0  0
   12.1033    0.0000    0.0000 C   0  0  0  0  0  0  0  0  0  0  0  0
    9.6869    0.0000    0.0000 C   0  0  0  0  0  0  0  0  0  0  0  0
  1  2  2  0  0  0  0
  2  3  1  0  0  0  0
  3  4  2  0  0  0  0
  4  5  1  0  0  0  0
  5  6  2  0  0  0  0
  6  1  1  0  0  0  0
  1  7  1  0  0  0  0
  2  8  1  0  0  0  0
  6  9  1  0  0  0  0
  4 10  1  0  0  0  0
 10 11  1  0  0  0  0
 11 12  2  0  0  0  0
 12 13  1  0  0  0  0
 13 14  2  0  0  0  0
 14 15  1  0  0  0  0
 15 16  2  0  0  0  0
 16 11  1  0  0  0  0
 13 17  1  0  0  0  0
 17 18  1  0  0  0  0
 18 19  1  0  0  0  0
 19 20  1  0  0  0  0
 20 14  1  0  0  0  0
 20 21  1  0  0  0  0
 19 22  2  0  0  0  0
 17 23  1  0  0  0  0
 18 24  1  0  0  0  0
 23 25  1  0  0  0  0
 25 26  1  0  0  0  0
 26 27  1  0  0  0  0
 26 28  1  0  0  0  0
M  END
>  <Mol_ID> (261)
1131

>  <Formula> (261)
C19H23F2N5O2

>  <MolWeight> (261)
391.4150264

>  <Cat> (261)
S2843

>  <Name> (261)
BI-D1870

>  <Synonyms> (261)
N/A

>  <Target> (261)
S6 Kinase

>  <Form> (261)
Free Base

>  <CAS> (261)
501437-28-1

>  <URL> (261)
http://www.selleckchem.com/products/bi-d1870.html

$$$$
Tyrphostin AG 17.cdx
csChFnd80/05071909292D

 21 21  0  0  0  0  0  0  0  0999 V2000
    2.4249    4.2031    0.0000 C   0  0  0  0  0  0  0  0  0  0  0  0
    2.4249    2.7940    0.0000 C   0  0  0  0  0  0  0  0  0  0  0  0
    3.6304    4.8974    0.0000 C   0  0  0  0  0  0  0  0  0  0  0  0
    1.2124    4.9031    0.0000 C   0  0  0  0  0  0  0  0  0  0  0  0
    3.6219    2.0999    0.0000 C   0  0  0  0  0  0  0  0  0  0  0  0
    1.2125    2.0940    0.0000 O   0  0  0  0  0  0  0  0  0  0  0  0
    4.9017    4.2104    0.0000 C   0  0  0  0  0  0  0  0  0  0  0  0
    4.9062    2.7943    0.0000 C   0  0  0  0  0  0  0  0  0  0  0  0
    3.6219    0.7000    0.0000 C   0  0  0  0  0  0  0  0  0  0  0  0
    6.1142    4.9104    0.0000 C   0  0  0  0  0  0  0  0  0  0  0  0
    7.3200    4.2142    0.0000 C   0  0  0  0  0  0  0  0  0  0  0  0
    7.3200    2.8179    0.0000 C   0  0  0  0  0  0  0  0  0  0  0  0
    8.5357    4.9160    0.0000 C   0  0  0  0  0  0  0  0  0  0  0  0
    7.3200    1.4179    0.0000 N   0  0  0  0  0  0  0  0  0  0  0  0
    9.7481    5.6160    0.0000 N   0  0  0  0  0  0  0  0  0  0  0  0
    0.0000    4.2031    0.0000 C   0  0  0  0  0  0  0  0  0  0  0  0
    1.2124    6.3031    0.0000 C   0  0  0  0  0  0  0  0  0  0  0  0
    2.4249    5.6031    0.0000 C   0  0  0  0  0  0  0  0  0  0  0  0
    4.8344    0.0000    0.0000 C   0  0  0  0  0  0  0  0  0  0  0  0
    2.4095    0.0000    0.0000 C   0  0  0  0  0  0  0  0  0  0  0  0
    4.8344    1.4000    0.0000 C   0  0  0  0  0  0  0  0  0  0  0  0
  1  2  1  0  0  0  0
  1  3  2  0  0  0  0
  1  4  1  0  0  0  0
  2  5  2  0  0  0  0
  2  6  1  0  0  0  0
  3  7  1  0  0  0  0
  5  8  1  0  0  0  0
  5  9  1  0  0  0  0
  7 10  1  0  0  0  0
  7  8  2  0  0  0  0
 10 11  2  0  0  0  0
 11 12  1  0  0  0  0
 11 13  1  0  0  0  0
 12 14  3  0  0  0  0
 13 15  3  0  0  0  0
  4 16  1  0  0  0  0
  4 17  1  0  0  0  0
  4 18  1  0  0  0  0
  9 19  1  0  0  0  0
  9 20  1  0  0  0  0
  9 21  1  0  0  0  0
M  END
>  <Mol_ID> (262)
1134

>  <Formula> (262)
C18H22N2O

>  <MolWeight> (262)
282.38008

>  <Cat> (262)
S2895

>  <Name> (262)
Tyrphostin 9 (SF 6847)

>  <Synonyms> (262)
Tyrphostin AG 17, Malonaben, NSC 242557, RG-50872

>  <Target> (262)
EGFR

>  <Form> (262)
Free Base

>  <CAS> (262)
10537-47-0

>  <URL> (262)
http://www.selleckchem.com/products/tyrphostin-9-sf-6847.html

$$$$
ZM323881 HCl.cdx
csChFnd80/05071909292D

 29 31  0  0  0  0  0  0  0  0999 V2000
   14.7000    3.6373    0.0000 C   0  0  0  0  0  0  0  0  0  0  0  0
   15.4000    2.4249    0.0000 C   0  0  0  0  0  0  0  0  0  0  0  0
   14.7000    1.2124    0.0000 C   0  0  0  0  0  0  0  0  0  0  0  0
   13.3000    1.2124    0.0000 C   0  0  0  0  0  0  0  0  0  0  0  0
   12.6000    2.4249    0.0000 C   0  0  0  0  0  0  0  0  0  0  0  0
   13.3000    3.6373    0.0000 C   0  0  0  0  0  0  0  0  0  0  0  0
   11.2000    2.4249    0.0000 N   0  0  0  0  0  0  0  0  0  0  0  0
    9.1000    6.0622    0.0000 N   0  0  0  0  0  0  0  0  0  0  0  0
   10.5000    6.0622    0.0000 C   0  0  0  0  0  0  0  0  0  0  0  0
   11.2000    4.8497    0.0000 N   0  0  0  0  0  0  0  0  0  0  0  0
   10.5000    3.6373    0.0000 C   0  0  0  0  0  0  0  0  0  0  0  0
    9.1000    3.6373    0.0000 C   0  0  0  0  0  0  0  0  0  0  0  0
    8.4000    2.4249    0.0000 C   0  0  0  0  0  0  0  0  0  0  0  0
    7.0000    2.4249    0.0000 C   0  0  0  0  0  0  0  0  0  0  0  0
    6.3000    3.6373    0.0000 C   0  0  0  0  0  0  0  0  0  0  0  0
    7.0000    4.8497    0.0000 C   0  0  0  0  0  0  0  0  0  0  0  0
    8.4000    4.8497    0.0000 C   0  0  0  0  0  0  0  0  0  0  0  0
    4.9000    3.6373    0.0000 O   0  0  0  0  0  0  0  0  0  0  0  0
    4.2000    2.4249    0.0000 C   0  0  0  0  0  0  0  0  0  0  0  0
    2.8000    2.4249    0.0000 C   0  0  0  0  0  0  0  0  0  0  0  0
    2.1000    1.2124    0.0000 C   0  0  0  0  0  0  0  0  0  0  0  0
    0.7000    1.2124    0.0000 C   0  0  0  0  0  0  0  0  0  0  0  0
    0.0000    2.4249    0.0000 C   0  0  0  0  0  0  0  0  0  0  0  0
    0.7000    3.6373    0.0000 C   0  0  0  0  0  0  0  0  0  0  0  0
    2.1000    3.6373    0.0000 C   0  0  0  0  0  0  0  0  0  0  0  0
   16.8000    2.4249    0.0000 C   0  0  0  0  0  0  0  0  0  0  0  0
   12.6000    0.0000    0.0000 F   0  0  0  0  0  0  0  0  0  0  0  0
   15.4000    4.8497    0.0000 O   0  0  0  0  0  0  0  0  0  0  0  0
    6.1319    0.7834    0.0000 Cl  0  0  0  0  0  0  0  0  0  0  0  0
  1  2  1  0  0  0  0
  2  3  2  0  0  0  0
  3  4  1  0  0  0  0
  4  5  2  0  0  0  0
  5  6  1  0  0  0  0
  1  6  2  0  0  0  0
  8  9  1  0  0  0  0
  9 10  2  0  0  0  0
 10 11  1  0  0  0  0
 11 12  2  0  0  0  0
 12 13  1  0  0  0  0
 13 14  2  0  0  0  0
 14 15  1  0  0  0  0
 15 16  2  0  0  0  0
 16 17  1  0  0  0  0
  8 17  2  0  0  0  0
 12 17  1  0  0  0  0
 18 19  1  0  0  0  0
 20 21  1  0  0  0  0
 21 22  2  0  0  0  0
 22 23  1  0  0  0  0
 23 24  2  0  0  0  0
 24 25  1  0  0  0  0
 20 25  2  0  0  0  0
 19 20  1  0  0  0  0
 15 18  1  0  0  0  0
  7 11  1  0  0  0  0
  5  7  1  0  0  0  0
  2 26  1  0  0  0  0
  4 27  1  0  0  0  0
  1 28  1  0  0  0  0
M  END
>  <Mol_ID> (263)
1135

>  <Formula> (263)
C22H19ClFN3O2

>  <MolWeight> (263)
411.8565632

>  <Cat> (263)
S2896

>  <Name> (263)
ZM 323881 HCl

>  <Synonyms> (263)
N/A

>  <Target> (263)
VEGFR

>  <Form> (263)
Hydrochloride

>  <CAS> (263)
193000-39-4

>  <URL> (263)
http://www.selleckchem.com/products/zm-323881-hcl.html

$$$$
ZM306416.cdx
csChFnd80/05071909292D

 23 25  0  0  0  0  0  0  0  0999 V2000
    4.8450    2.0978    0.0000 C   0  0  0  0  0  0  0  0  0  0  0  0
    4.8450    0.6978    0.0000 C   0  0  0  0  0  0  0  0  0  0  0  0
    6.0526    2.8088    0.0000 C   0  0  0  0  0  0  0  0  0  0  0  0
    3.6373    2.8088    0.0000 C   0  0  0  0  0  0  0  0  0  0  0  0
    3.6373    0.0000    0.0000 C   0  0  0  0  0  0  0  0  0  0  0  0
    6.0526    0.0000    0.0000 N   0  0  0  0  0  0  0  0  0  0  0  0
    6.0526    4.2000    0.0000 N   0  0  0  0  0  0  0  0  0  0  0  0
    7.2737    2.0978    0.0000 N   0  0  0  0  0  0  0  0  0  0  0  0
    2.4252    2.0978    0.0000 C   0  0  0  0  0  0  0  0  0  0  0  0
    2.4252    0.6978    0.0000 C   0  0  0  0  0  0  0  0  0  0  0  0
    7.2737    0.6978    0.0000 C   0  0  0  0  0  0  0  0  0  0  0  0
    7.2737    4.8978    0.0000 C   0  0  0  0  0  0  0  0  0  0  0  0
    1.2130    2.8088    0.0000 O   0  0  0  0  0  0  0  0  0  0  0  0
    1.2130    0.0000    0.0000 O   0  0  0  0  0  0  0  0  0  0  0  0
    7.2737    6.2978    0.0000 C   0  0  0  0  0  0  0  0  0  0  0  0
    8.4859    4.2000    0.0000 C   0  0  0  0  0  0  0  0  0  0  0  0
    0.0143    0.6888    0.0000 C   0  0  0  0  0  0  0  0  0  0  0  0
    8.4859    7.0000    0.0000 C   0  0  0  0  0  0  0  0  0  0  0  0
    6.0616    7.0000    0.0000 F   0  0  0  0  0  0  0  0  0  0  0  0
    9.6936    4.8978    0.0000 C   0  0  0  0  0  0  0  0  0  0  0  0
    9.6936    6.2978    0.0000 C   0  0  0  0  0  0  0  0  0  0  0  0
   10.9058    7.0000    0.0000 Cl  0  0  0  0  0  0  0  0  0  0  0  0
    0.0000    2.1196    0.0000 C   0  0  0  0  0  0  0  0  0  0  0  0
  1  2  1  0  0  0  0
  1  3  2  0  0  0  0
  1  4  1  0  0  0  0
  2  5  1  0  0  0  0
  2  6  2  0  0  0  0
  3  7  1  0  0  0  0
  3  8  1  0  0  0  0
  4  9  2  0  0  0  0
  5 10  2  0  0  0  0
  6 11  1  0  0  0  0
  7 12  1  0  0  0  0
  8 11  2  0  0  0  0
  9 13  1  0  0  0  0
  9 10  1  0  0  0  0
 10 14  1  0  0  0  0
 12 15  2  0  0  0  0
 12 16  1  0  0  0  0
 14 17  1  0  0  0  0
 15 18  1  0  0  0  0
 15 19  1  0  0  0  0
 16 20  2  0  0  0  0
 18 21  2  0  0  0  0
 20 21  1  0  0  0  0
 21 22  1  0  0  0  0
 13 23  1  0  0  0  0
M  END
>  <Mol_ID> (264)
1136

>  <Formula> (264)
C16H13ClFN3O2

>  <MolWeight> (264)
333.7447232

>  <Cat> (264)
S2897

>  <Name> (264)
ZM 306416

>  <Synonyms> (264)
N/A

>  <Target> (264)
VEGFR

>  <Form> (264)
Free Base

>  <CAS> (264)
690206-97-4

>  <URL> (264)
http://www.selleckchem.com/products/zm-306416.html

$$$$
S-Ruxolitinib.cdx
csChFnd80/05071909292D

 23 26  0  0  0  0  0  0  0  0999 V2000
    1.2083    0.0000    0.0000 N   0  0  0  0  0  0  0  0  0  0  0  0
    0.0000    0.6929    0.0000 C   0  0  0  0  0  0  0  0  0  0  0  0
    0.0000    2.0931    0.0000 N   0  0  0  0  0  0  0  0  0  0  0  0
    1.2083    2.8002    0.0000 C   0  0  0  0  0  0  0  0  0  0  0  0
    2.4165    0.6929    0.0000 C   0  0  0  0  0  0  0  0  0  0  0  0
    2.4165    2.0931    0.0000 C   0  0  0  0  0  0  0  0  0  0  0  0
    3.7478    2.5258    0.0000 C   0  0  0  0  0  0  0  0  0  0  0  0
    4.5709    1.3929    0.0000 C   0  0  0  0  0  0  0  0  0  0  0  0
    3.7480    0.2605    0.0000 N   0  0  0  0  0  0  0  0  0  0  0  0
    1.2083    4.2003    0.0000 C   0  0  0  0  0  0  0  0  0  0  0  0
    0.0813    5.0191    0.0000 C   0  0  0  0  0  0  0  0  0  0  0  0
    0.5139    6.3505    0.0000 N   0  0  0  0  0  0  0  0  0  0  0  0
    1.9141    6.3505    0.0000 N   0  0  0  0  0  0  0  0  0  0  0  0
    2.3465    5.0191    0.0000 C   0  0  0  0  0  0  0  0  0  0  0  0
    2.7371    7.4831    0.0000 C   0  0  2  0  0  0  0  0  0  0  0  0
    2.1678    8.7622    0.0000 C   0  0  0  0  0  0  0  0  0  0  0  0
    4.1295    7.3367    0.0000 C   0  0  0  0  0  0  0  0  0  0  0  0
    2.8679    9.9745    0.0000 C   0  0  0  0  0  0  0  0  0  0  0  0
    1.9311   11.0150    0.0000 C   0  0  0  0  0  0  0  0  0  0  0  0
    0.6521   10.4457    0.0000 C   0  0  0  0  0  0  0  0  0  0  0  0
    0.7984    9.0533    0.0000 C   0  0  0  0  0  0  0  0  0  0  0  0
    4.9496    8.4653    0.0000 C   0  0  0  0  0  0  0  0  0  0  0  0
    5.7726    9.5979    0.0000 N   0  0  0  0  0  0  0  0  0  0  0  0
  5  1  1  0  0  0  0
  1  2  2  0  0  0  0
  2  3  1  0  0  0  0
  3  4  2  0  0  0  0
  6  4  1  0  0  0  0
  4 10  1  0  0  0  0
  5  6  2  0  0  0  0
  9  5  1  0  0  0  0
  6  7  1  0  0  0  0
  7  8  2  0  0  0  0
  8  9  1  0  0  0  0
 14 10  2  0  0  0  0
 10 11  1  0  0  0  0
 11 12  2  0  0  0  0
 12 13  1  0  0  0  0
 13 14  1  0  0  0  0
 15 13  1  0  0  0  0
 15 16  1  0  0  0  0
 15 17  1  6  0  0  0
 16 18  1  0  0  0  0
 18 19  1  0  0  0  0
 19 20  1  0  0  0  0
 20 21  1  0  0  0  0
 21 16  1  0  0  0  0
 17 22  1  0  0  0  0
 22 23  3  0  0  0  0
M  END
>  <Mol_ID> (265)
1138

>  <Formula> (265)
C17H18N6

>  <MolWeight> (265)
306.36502

>  <Cat> (265)
S2902

>  <Name> (265)
S-Ruxolitinib

>  <Synonyms> (265)
N/A

>  <Target> (265)
JAK

>  <Form> (265)
Free Base

>  <CAS> (265)
941685-37-6

>  <URL> (265)
http://www.selleckchem.com/products/s-ruxolitinib.html

$$$$
PF477736.cdx
csChFnd80/05071909292D

 31 35  0  0  0  0  0  0  0  0999 V2000
    7.2578    3.4927    0.0000 C   0  0  0  0  0  0  0  0  0  0  0  0
    7.2578    2.0927    0.0000 C   0  0  0  0  0  0  0  0  0  0  0  0
    8.4702    1.3927    0.0000 C   0  0  0  0  0  0  0  0  0  0  0  0
    9.6826    2.0927    0.0000 C   0  0  0  0  0  0  0  0  0  0  0  0
    9.6826    3.4927    0.0000 C   0  0  0  0  0  0  0  0  0  0  0  0
    8.4702    4.1927    0.0000 C   0  0  0  0  0  0  0  0  0  0  0  0
   11.0141    1.6601    0.0000 N   0  0  0  0  0  0  0  0  0  0  0  0
   11.8370    2.7927    0.0000 C   0  0  0  0  0  0  0  0  0  0  0  0
   11.0141    3.9253    0.0000 C   0  0  0  0  0  0  0  0  0  0  0  0
   13.2370    2.7927    0.0000 C   0  0  0  0  0  0  0  0  0  0  0  0
    6.0496    1.3951    0.0000 N   0  0  0  0  0  0  0  0  0  0  0  0
    4.8413    2.0927    0.0000 C   0  0  0  0  0  0  0  0  0  0  0  0
    3.6331    1.3951    0.0000 C   0  0  1  0  0  0  0  0  0  0  0  0
    2.4249    2.0927    0.0000 C   0  0  0  0  0  0  0  0  0  0  0  0
    4.8413    3.4878    0.0000 O   0  0  0  0  0  0  0  0  0  0  0  0
    3.6331    0.0000    0.0000 N   0  0  0  0  0  0  0  0  0  0  0  0
    2.4249    3.4927    0.0000 C   0  0  0  0  0  0  0  0  0  0  0  0
    1.2124    4.1927    0.0000 C   0  0  0  0  0  0  0  0  0  0  0  0
    0.0000    3.4927    0.0000 C   0  0  0  0  0  0  0  0  0  0  0  0
    0.0000    2.0927    0.0000 C   0  0  0  0  0  0  0  0  0  0  0  0
    1.2124    1.3927    0.0000 C   0  0  0  0  0  0  0  0  0  0  0  0
   14.0599    1.6601    0.0000 C   0  0  0  0  0  0  0  0  0  0  0  0
   15.3914    2.0927    0.0000 N   0  0  0  0  0  0  0  0  0  0  0  0
   15.3914    3.4927    0.0000 N   0  0  0  0  0  0  0  0  0  0  0  0
   14.0599    3.9253    0.0000 C   0  0  0  0  0  0  0  0  0  0  0  0
   16.5201    4.3128    0.0000 C   0  0  0  0  0  0  0  0  0  0  0  0
   11.5061    5.2361    0.0000 C   0  0  0  0  0  0  0  0  0  0  0  0
   10.7880    6.4379    0.0000 N   0  0  0  0  0  0  0  0  0  0  0  0
    9.4007    6.6258    0.0000 N   0  0  0  0  0  0  0  0  0  0  0  0
    8.3888    5.6583    0.0000 C   0  0  0  0  0  0  0  0  0  0  0  0
    7.0912    6.1708    0.0000 O   0  0  0  0  0  0  0  0  0  0  0  0
  1  2  2  0  0  0  0
  2  3  1  0  0  0  0
  3  4  2  0  0  0  0
  4  5  1  0  0  0  0
  5  6  2  0  0  0  0
  6  1  1  0  0  0  0
  4  7  1  0  0  0  0
  7  8  1  0  0  0  0
  8  9  2  0  0  0  0
  9  5  1  0  0  0  0
  8 10  1  0  0  0  0
  2 11  1  0  0  0  0
 11 12  1  0  0  0  0
 12 13  1  0  0  0  0
 13 14  1  0  0  0  0
 12 15  2  0  0  0  0
 13 16  1  6  0  0  0
 14 17  1  0  0  0  0
 17 18  1  0  0  0  0
 18 19  1  0  0  0  0
 19 20  1  0  0  0  0
 20 21  1  0  0  0  0
 21 14  1  0  0  0  0
 10 22  1  0  0  0  0
 22 23  2  0  0  0  0
 23 24  1  0  0  0  0
 24 25  1  0  0  0  0
 25 10  2  0  0  0  0
 24 26  1  0  0  0  0
  9 27  1  0  0  0  0
 27 28  2  0  0  0  0
 28 29  1  0  0  0  0
 29 30  1  0  0  0  0
 30  6  1  0  0  0  0
 30 31  2  0  0  0  0
M  END
>  <Mol_ID> (266)
1154

>  <Formula> (266)
C22H25N7O2

>  <MolWeight> (266)
419.4796

>  <Cat> (266)
S2904

>  <Name> (266)
PF 477736

>  <Synonyms> (266)
PF-00477736

>  <Target> (266)
Chk

>  <Form> (266)
Free Base

>  <CAS> (266)
952021-60-2

>  <URL> (266)
http://www.selleckchem.com/products/pf-477736.html

$$$$
Go 6983.cdx
csChFnd80/05071909292D

 33 37  0  0  0  0  0  0  0  0999 V2000
    2.4165    7.8868    0.0000 C   0  0  0  0  0  0  0  0  0  0  0  0
    2.4165    6.4868    0.0000 C   0  0  0  0  0  0  0  0  0  0  0  0
    3.6289    5.7868    0.0000 C   0  0  0  0  0  0  0  0  0  0  0  0
    4.8413    6.4868    0.0000 C   0  0  0  0  0  0  0  0  0  0  0  0
    4.8413    7.8868    0.0000 C   0  0  0  0  0  0  0  0  0  0  0  0
    3.6289    8.5868    0.0000 C   0  0  0  0  0  0  0  0  0  0  0  0
    1.2082    8.5843    0.0000 O   0  0  0  0  0  0  0  0  0  0  0  0
    0.0000    7.8868    0.0000 C   0  0  0  0  0  0  0  0  0  0  0  0
    6.1728    6.0542    0.0000 N   0  0  0  0  0  0  0  0  0  0  0  0
    6.9957    7.1868    0.0000 C   0  0  0  0  0  0  0  0  0  0  0  0
    6.1728    8.3194    0.0000 C   0  0  0  0  0  0  0  0  0  0  0  0
    6.6039    4.7273    0.0000 C   0  0  0  0  0  0  0  0  0  0  0  0
    5.6704    3.6905    0.0000 C   0  0  0  0  0  0  0  0  0  0  0  0
    6.1015    2.3636    0.0000 C   0  0  0  0  0  0  0  0  0  0  0  0
    5.1680    1.3269    0.0000 N   0  0  0  0  0  0  0  0  0  0  0  0
    5.5991    0.0000    0.0000 C   0  0  0  0  0  0  0  0  0  0  0  0
    3.8033    1.6169    0.0000 C   0  0  0  0  0  0  0  0  0  0  0  0
    7.6393   11.6201    0.0000 N   0  0  0  0  0  0  0  0  0  0  0  0
    6.5067   10.7972    0.0000 C   0  0  0  0  0  0  0  0  0  0  0  0
    6.9393    9.4657    0.0000 C   0  0  0  0  0  0  0  0  0  0  0  0
    8.3393    9.4657    0.0000 C   0  0  0  0  0  0  0  0  0  0  0  0
    8.7719   10.7972    0.0000 C   0  0  0  0  0  0  0  0  0  0  0  0
   10.0988   11.2283    0.0000 O   0  0  0  0  0  0  0  0  0  0  0  0
    5.1798   11.2283    0.0000 O   0  0  0  0  0  0  0  0  0  0  0  0
   10.5102    7.8139    0.0000 C   0  0  0  0  0  0  0  0  0  0  0  0
   10.5102    6.4139    0.0000 C   0  0  0  0  0  0  0  0  0  0  0  0
   11.7226    5.7139    0.0000 C   0  0  0  0  0  0  0  0  0  0  0  0
   12.9351    6.4139    0.0000 C   0  0  0  0  0  0  0  0  0  0  0  0
   12.9351    7.8139    0.0000 C   0  0  0  0  0  0  0  0  0  0  0  0
   11.7226    8.5139    0.0000 C   0  0  0  0  0  0  0  0  0  0  0  0
    9.1787    8.2465    0.0000 C   0  0  0  0  0  0  0  0  0  0  0  0
    8.3558    7.1139    0.0000 C   0  0  0  0  0  0  0  0  0  0  0  0
    9.1787    5.9812    0.0000 N   0  0  0  0  0  0  0  0  0  0  0  0
  1  2  2  0  0  0  0
  2  3  1  0  0  0  0
  3  4  2  0  0  0  0
  4  5  1  0  0  0  0
  5  6  2  0  0  0  0
  6  1  1  0  0  0  0
  1  7  1  0  0  0  0
  7  8  1  0  0  0  0
  4  9  1  0  0  0  0
  9 10  1  0  0  0  0
 10 11  2  0  0  0  0
 11  5  1  0  0  0  0
  9 12  1  0  0  0  0
 12 13  1  0  0  0  0
 13 14  1  0  0  0  0
 14 15  1  0  0  0  0
 15 16  1  0  0  0  0
 15 17  1  0  0  0  0
 18 19  1  0  0  0  0
 19 20  1  0  0  0  0
 20 21  2  0  0  0  0
 21 22  1  0  0  0  0
 22 18  1  0  0  0  0
 22 23  2  0  0  0  0
 19 24  2  0  0  0  0
 11 20  1  0  0  0  0
 25 26  2  0  0  0  0
 26 27  1  0  0  0  0
 27 28  2  0  0  0  0
 28 29  1  0  0  0  0
 29 30  2  0  0  0  0
 30 25  1  0  0  0  0
 25 31  1  0  0  0  0
 31 32  2  0  0  0  0
 32 33  1  0  0  0  0
 33 26  1  0  0  0  0
 31 21  1  0  0  0  0
M  END
>  <Mol_ID> (267)
1156

>  <Formula> (267)
C26H26N4O3

>  <MolWeight> (267)
442.50964

>  <Cat> (267)
S2911

>  <Name> (267)
Go 6983

>  <Synonyms> (267)
N/A

>  <Target> (267)
PKC

>  <Form> (267)
Free Base

>  <CAS> (267)
133053-19-7

>  <URL> (267)
http://www.selleckchem.com/products/go-6983.html

$$$$
PF 573228.cdx
csChFnd80/05071909292D

 34 37  0  0  0  0  0  0  0  0999 V2000
   15.9124    2.4249    0.0000 N   0  0  0  0  0  0  0  0  0  0  0  0
   16.6124    1.2124    0.0000 C   0  0  0  0  0  0  0  0  0  0  0  0
   15.9124    0.0000    0.0000 C   0  0  0  0  0  0  0  0  0  0  0  0
   14.5124    0.0000    0.0000 C   0  0  0  0  0  0  0  0  0  0  0  0
   13.8124    1.2124    0.0000 C   0  0  0  0  0  0  0  0  0  0  0  0
   12.4124    1.2124    0.0000 C   0  0  0  0  0  0  0  0  0  0  0  0
   11.7124    2.4249    0.0000 C   0  0  0  0  0  0  0  0  0  0  0  0
   12.4124    3.6373    0.0000 C   0  0  0  0  0  0  0  0  0  0  0  0
   13.8124    3.6373    0.0000 C   0  0  0  0  0  0  0  0  0  0  0  0
   14.5124    2.4249    0.0000 C   0  0  0  0  0  0  0  0  0  0  0  0
   18.0124    1.2124    0.0000 O   0  0  0  0  0  0  0  0  0  0  0  0
   10.3124    2.4249    0.0000 N   0  0  0  0  0  0  0  0  0  0  0  0
    9.6124    3.6373    0.0000 C   0  0  0  0  0  0  0  0  0  0  0  0
    8.2124    3.6373    0.0000 N   0  0  0  0  0  0  0  0  0  0  0  0
    7.5124    4.8497    0.0000 C   0  0  0  0  0  0  0  0  0  0  0  0
    8.2124    6.0622    0.0000 C   0  0  0  0  0  0  0  0  0  0  0  0
    9.6124    6.0622    0.0000 C   0  0  0  0  0  0  0  0  0  0  0  0
   10.3124    4.8497    0.0000 N   0  0  0  0  0  0  0  0  0  0  0  0
    7.5124    7.2746    0.0000 C   0  0  0  0  0  0  0  0  0  0  0  0
    6.3000    6.5746    0.0000 F   0  0  0  0  0  0  0  0  0  0  0  0
    6.8124    8.4870    0.0000 F   0  0  0  0  0  0  0  0  0  0  0  0
    8.7249    7.9746    0.0000 F   0  0  0  0  0  0  0  0  0  0  0  0
    6.1124    4.8497    0.0000 N   0  0  0  0  0  0  0  0  0  0  0  0
    5.4124    6.0622    0.0000 C   0  0  0  0  0  0  0  0  0  0  0  0
    4.0124    6.0622    0.0000 C   0  0  0  0  0  0  0  0  0  0  0  0
    3.3124    4.8497    0.0000 C   0  0  0  0  0  0  0  0  0  0  0  0
    1.9124    4.8497    0.0000 C   0  0  0  0  0  0  0  0  0  0  0  0
    1.2124    6.0622    0.0000 C   0  0  0  0  0  0  0  0  0  0  0  0
    1.9124    7.2746    0.0000 C   0  0  0  0  0  0  0  0  0  0  0  0
    3.3124    7.2746    0.0000 C   0  0  0  0  0  0  0  0  0  0  0  0
    1.2124    3.6373    0.0000 S   0  0  0  0  0  0  0  0  0  0  0  0
    2.4249    2.9373    0.0000 O   0  0  0  0  0  0  0  0  0  0  0  0
    0.0000    4.3373    0.0000 O   0  0  0  0  0  0  0  0  0  0  0  0
    0.5124    2.4249    0.0000 C   0  0  0  0  0  0  0  0  0  0  0  0
  1  2  1  0  0  0  0
  2  3  1  0  0  0  0
  3  4  1  0  0  0  0
  4  5  1  0  0  0  0
  5  6  1  0  0  0  0
  6  7  2  0  0  0  0
  7  8  1  0  0  0  0
  8  9  2  0  0  0  0
  9 10  1  0  0  0  0
  1 10  1  0  0  0  0
  5 10  2  0  0  0  0
  2 11  2  0  0  0  0
 13 14  1  0  0  0  0
 14 15  2  0  0  0  0
 15 16  1  0  0  0  0
 16 17  2  0  0  0  0
 17 18  1  0  0  0  0
 13 18  2  0  0  0  0
 19 20  1  0  0  0  0
 19 21  1  0  0  0  0
 19 22  1  0  0  0  0
 16 19  1  0  0  0  0
 25 26  1  0  0  0  0
 26 27  2  0  0  0  0
 27 28  1  0  0  0  0
 28 29  2  0  0  0  0
 29 30  1  0  0  0  0
 25 30  2  0  0  0  0
 31 32  2  0  0  0  0
 31 33  2  0  0  0  0
 31 34  1  0  0  0  0
 27 31  1  0  0  0  0
 24 25  1  0  0  0  0
 23 24  1  0  0  0  0
 15 23  1  0  0  0  0
 12 13  1  0  0  0  0
  7 12  1  0  0  0  0
M  END
>  <Mol_ID> (268)
1161

>  <Formula> (268)
C22H20F3N5O3S

>  <MolWeight> (268)
491.4861096

>  <Cat> (268)
S2013

>  <Name> (268)
PF 573228

>  <Synonyms> (268)
N/A

>  <Target> (268)
FAK

>  <Form> (268)
Free Base

>  <CAS> (268)
869288-64-2

>  <URL> (268)
http://www.selleckchem.com/products/pf-573228.html

$$$$
Salubrinal.cdx
csChFnd80/05071909292D

 30 32  0  0  0  0  0  0  0  0999 V2000
   14.5329    2.1000    0.0000 C   0  0  0  0  0  0  0  0  0  0  0  0
   13.3205    2.8000    0.0000 C   0  0  0  0  0  0  0  0  0  0  0  0
   15.7453    2.8000    0.0000 C   0  0  0  0  0  0  0  0  0  0  0  0
   14.5329    0.7000    0.0000 N   0  0  0  0  0  0  0  0  0  0  0  0
   12.1080    2.1000    0.0000 N   0  0  0  0  0  0  0  0  0  0  0  0
   13.3205    4.2000    0.0000 C   0  0  0  0  0  0  0  0  0  0  0  0
   15.7453    4.2000    0.0000 C   0  0  0  0  0  0  0  0  0  0  0  0
   16.9578    2.1000    0.0000 C   0  0  0  0  0  0  0  0  0  0  0  0
   15.7453    0.0000    0.0000 C   0  0  0  0  0  0  0  0  0  0  0  0
   10.8903    2.8030    0.0000 C   0  0  0  0  0  0  0  0  0  0  0  0
   14.5329    4.9000    0.0000 C   0  0  0  0  0  0  0  0  0  0  0  0
   16.9578    0.7000    0.0000 C   0  0  0  0  0  0  0  0  0  0  0  0
    9.6805    2.1046    0.0000 N   0  0  0  0  0  0  0  0  0  0  0  0
   10.8903    4.2061    0.0000 S   0  0  0  0  0  0  0  0  0  0  0  0
    8.4668    2.8054    0.0000 C   0  0  3  0  0  0  0  0  0  0  0  0
    7.2550    2.1057    0.0000 N   0  0  0  0  0  0  0  0  0  0  0  0
    8.4668    4.2061    0.0000 C   0  0  0  0  0  0  0  0  0  0  0  0
    6.0422    2.8059    0.0000 C   0  0  0  0  0  0  0  0  0  0  0  0
    4.8300    2.1060    0.0000 C   0  0  0  0  0  0  0  0  0  0  0  0
    6.0422    4.2061    0.0000 O   0  0  0  0  0  0  0  0  0  0  0  0
    3.6175    2.8061    0.0000 C   0  0  0  0  0  0  0  0  0  0  0  0
    2.4051    2.1061    0.0000 C   0  0  0  0  0  0  0  0  0  0  0  0
    1.2021    2.8007    0.0000 C   0  0  0  0  0  0  0  0  0  0  0  0
    2.4050    0.7021    0.0000 C   0  0  0  0  0  0  0  0  0  0  0  0
    0.0000    2.1066    0.0000 C   0  0  0  0  0  0  0  0  0  0  0  0
    1.1945    0.0032    0.0000 C   0  0  0  0  0  0  0  0  0  0  0  0
    0.0000    0.7007    0.0000 C   0  0  0  0  0  0  0  0  0  0  0  0
    7.2543    4.9061    0.0000 Cl  0  0  0  0  0  0  0  0  0  0  0  0
    9.6792    4.9061    0.0000 Cl  0  0  0  0  0  0  0  0  0  0  0  0
    8.4668    5.6061    0.0000 Cl  0  0  0  0  0  0  0  0  0  0  0  0
  1  2  1  0  0  0  0
  1  3  2  0  0  0  0
  1  4  1  0  0  0  0
  2  5  1  0  0  0  0
  2  6  2  0  0  0  0
  3  7  1  0  0  0  0
  3  8  1  0  0  0  0
  4  9  2  0  0  0  0
  5 10  1  0  0  0  0
  6 11  1  0  0  0  0
  7 11  2  0  0  0  0
  8 12  2  0  0  0  0
  9 12  1  0  0  0  0
 10 13  1  0  0  0  0
 10 14  2  0  0  0  0
 13 15  1  0  0  0  0
 15 16  1  0  0  0  0
 15 17  1  0  0  0  0
 16 18  1  0  0  0  0
 18 19  1  0  0  0  0
 18 20  2  0  0  0  0
 19 21  2  0  0  0  0
 21 22  1  0  0  0  0
 22 23  2  0  0  0  0
 22 24  1  0  0  0  0
 23 25  1  0  0  0  0
 24 26  2  0  0  0  0
 25 27  2  0  0  0  0
 26 27  1  0  0  0  0
 17 28  1  0  0  0  0
 17 29  1  0  0  0  0
 17 30  1  0  0  0  0
M  END
>  <Mol_ID> (269)
1163

>  <Formula> (269)
C21H17Cl3N4OS

>  <MolWeight> (269)
479.80988

>  <Cat> (269)
S2923

>  <Name> (269)
Salubrinal

>  <Synonyms> (269)
N/A

>  <Target> (269)
PERK

>  <Form> (269)
Free Base

>  <CAS> (269)
137975-06-5

>  <URL> (269)
http://www.selleckchem.com/products/salubrinal.html

$$$$
MLN0905.cdx
csChFnd80/05071909292D

 34 37  0  0  0  0  0  0  0  0999 V2000
    5.5966    3.3100    0.0000 C   0  0  0  0  0  0  0  0  0  0  0  0
    5.5966    1.9100    0.0000 C   0  0  0  0  0  0  0  0  0  0  0  0
    6.8091    1.2100    0.0000 C   0  0  0  0  0  0  0  0  0  0  0  0
    8.0215    1.9100    0.0000 C   0  0  0  0  0  0  0  0  0  0  0  0
    8.0215    3.3100    0.0000 C   0  0  0  0  0  0  0  0  0  0  0  0
    6.8091    4.0100    0.0000 C   0  0  0  0  0  0  0  0  0  0  0  0
    9.1161    1.0371    0.0000 N   0  0  0  0  0  0  0  0  0  0  0  0
   10.4810    1.3486    0.0000 C   0  0  0  0  0  0  0  0  0  0  0  0
   11.0884    2.6100    0.0000 C   0  0  0  0  0  0  0  0  0  0  0  0
   10.4810    3.8714    0.0000 C   0  0  0  0  0  0  0  0  0  0  0  0
    9.1161    4.1829    0.0000 C   0  0  0  0  0  0  0  0  0  0  0  0
   11.4332    4.8976    0.0000 C   0  0  0  0  0  0  0  0  0  0  0  0
   11.0206    6.2354    0.0000 N   0  0  0  0  0  0  0  0  0  0  0  0
    9.6557    6.5470    0.0000 C   0  0  0  0  0  0  0  0  0  0  0  0
    8.7034    5.5207    0.0000 N   0  0  0  0  0  0  0  0  0  0  0  0
    9.2444    7.8801    0.0000 N   0  0  0  0  0  0  0  0  0  0  0  0
    4.3884    1.2124    0.0000 C   0  0  0  0  0  0  0  0  0  0  0  0
    3.6884    2.4249    0.0000 F   0  0  0  0  0  0  0  0  0  0  0  0
    5.0884    0.0000    0.0000 F   0  0  0  0  0  0  0  0  0  0  0  0
    3.1760    0.5124    0.0000 F   0  0  0  0  0  0  0  0  0  0  0  0
   11.3508    0.2579    0.0000 S   0  0  0  0  0  0  0  0  0  0  0  0
    7.8843    8.1906    0.0000 C   0  0  0  0  0  0  0  0  0  0  0  0
    7.4716    9.5284    0.0000 C   0  0  0  0  0  0  0  0  0  0  0  0
    6.1067    9.8399    0.0000 N   0  0  0  0  0  0  0  0  0  0  0  0
    5.1545    8.8136    0.0000 C   0  0  0  0  0  0  0  0  0  0  0  0
    5.5671    7.4758    0.0000 C   0  0  0  0  0  0  0  0  0  0  0  0
    6.9320    7.1643    0.0000 C   0  0  0  0  0  0  0  0  0  0  0  0
    8.4206   10.5511    0.0000 C   0  0  0  0  0  0  0  0  0  0  0  0
    4.6182    6.4531    0.0000 C   0  0  0  0  0  0  0  0  0  0  0  0
    3.2580    6.7636    0.0000 C   0  0  0  0  0  0  0  0  0  0  0  0
    2.3091    5.7409    0.0000 C   0  0  0  0  0  0  0  0  0  0  0  0
    0.9489    6.0513    0.0000 N   0  0  0  0  0  0  0  0  0  0  0  0
    0.0000    5.0286    0.0000 C   0  0  0  0  0  0  0  0  0  0  0  0
    0.5377    7.3845    0.0000 C   0  0  0  0  0  0  0  0  0  0  0  0
  1  2  2  0  0  0  0
  2  3  1  0  0  0  0
  3  4  2  0  0  0  0
  4  5  1  0  0  0  0
  5  6  2  0  0  0  0
  6  1  1  0  0  0  0
  4  7  1  0  0  0  0
  7  8  1  0  0  0  0
  8  9  1  0  0  0  0
  9 10  1  0  0  0  0
 10 11  2  0  0  0  0
 11  5  1  0  0  0  0
 10 12  1  0  0  0  0
 12 13  2  0  0  0  0
 13 14  1  0  0  0  0
 14 15  2  0  0  0  0
 15 11  1  0  0  0  0
 14 16  1  0  0  0  0
  2 17  1  0  0  0  0
  8 21  2  0  0  0  0
 16 22  1  0  0  0  0
 22 23  2  0  0  0  0
 23 24  1  0  0  0  0
 24 25  2  0  0  0  0
 25 26  1  0  0  0  0
 26 27  2  0  0  0  0
 27 22  1  0  0  0  0
 23 28  1  0  0  0  0
 26 29  1  0  0  0  0
 29 30  1  0  0  0  0
 30 31  1  0  0  0  0
 31 32  1  0  0  0  0
 32 33  1  0  0  0  0
 32 34  1  0  0  0  0
 17 18  1  0  0  0  0
 17 19  1  0  0  0  0
 17 20  1  0  0  0  0
M  END
>  <Mol_ID> (270)
1165

>  <Formula> (270)
C24H25F3N6S

>  <MolWeight> (270)
486.5557096

>  <Cat> (270)
S2898

>  <Name> (270)
MLN0905

>  <Synonyms> (270)
N/A

>  <Target> (270)
PLK

>  <Form> (270)
Free Base

>  <CAS> (270)
1228960-69-7

>  <URL> (270)
http://www.selleckchem.com/products/mln0905.html

$$$$
icotinib.cdx
csChFnd80/05071909292D

 29 32  0  0  0  0  0  0  0  0999 V2000
   10.6503    3.4903    0.0000 C   0  0  0  0  0  0  0  0  0  0  0  0
   11.8627    2.7903    0.0000 C   0  0  0  0  0  0  0  0  0  0  0  0
   13.0752    3.4903    0.0000 C   0  0  0  0  0  0  0  0  0  0  0  0
   13.0752    4.8903    0.0000 C   0  0  0  0  0  0  0  0  0  0  0  0
   11.8627    5.5903    0.0000 C   0  0  0  0  0  0  0  0  0  0  0  0
   10.6503    4.8903    0.0000 C   0  0  0  0  0  0  0  0  0  0  0  0
   11.8627    1.3951    0.0000 C   0  0  0  0  0  0  0  0  0  0  0  0
   11.8627    0.0000    0.0000 C   0  0  0  0  0  0  0  0  0  0  0  0
    9.4421    5.5878    0.0000 N   0  0  0  0  0  0  0  0  0  0  0  0
    9.4421    6.9830    0.0000 C   0  0  0  0  0  0  0  0  0  0  0  0
   10.6545    7.6830    0.0000 N   0  0  0  0  0  0  0  0  0  0  0  0
   10.6545    9.0830    0.0000 C   0  0  0  0  0  0  0  0  0  0  0  0
    9.4421    9.7830    0.0000 N   0  0  0  0  0  0  0  0  0  0  0  0
    8.2296    9.0830    0.0000 C   0  0  0  0  0  0  0  0  0  0  0  0
    8.2296    7.6830    0.0000 C   0  0  0  0  0  0  0  0  0  0  0  0
    7.0172    9.7830    0.0000 C   0  0  0  0  0  0  0  0  0  0  0  0
    5.8048    9.0830    0.0000 C   0  0  0  0  0  0  0  0  0  0  0  0
    5.8048    7.6830    0.0000 C   0  0  0  0  0  0  0  0  0  0  0  0
    7.0172    6.9830    0.0000 C   0  0  0  0  0  0  0  0  0  0  0  0
    4.5923    9.7830    0.0000 O   0  0  0  0  0  0  0  0  0  0  0  0
    3.3799    9.0830    0.0000 C   0  0  0  0  0  0  0  0  0  0  0  0
    3.3799    7.6830    0.0000 C   0  0  0  0  0  0  0  0  0  0  0  0
    4.5923    6.9830    0.0000 O   0  0  0  0  0  0  0  0  0  0  0  0
    2.3899   10.0729    0.0000 C   0  0  0  0  0  0  0  0  0  0  0  0
    0.9900   10.0729    0.0000 O   0  0  0  0  0  0  0  0  0  0  0  0
    0.0000    9.0830    0.0000 C   0  0  0  0  0  0  0  0  0  0  0  0
    0.0000    7.6830    0.0000 C   0  0  0  0  0  0  0  0  0  0  0  0
    0.9900    6.6930    0.0000 O   0  0  0  0  0  0  0  0  0  0  0  0
    2.3899    6.6930    0.0000 C   0  0  0  0  0  0  0  0  0  0  0  0
  1  2  2  0  0  0  0
  2  3  1  0  0  0  0
  3  4  2  0  0  0  0
  4  5  1  0  0  0  0
  5  6  2  0  0  0  0
  6  1  1  0  0  0  0
  2  7  1  0  0  0  0
  7  8  3  0  0  0  0
  6  9  1  0  0  0  0
  9 10  1  0  0  0  0
 10 11  2  0  0  0  0
 11 12  1  0  0  0  0
 12 13  2  0  0  0  0
 13 14  1  0  0  0  0
 14 15  2  0  0  0  0
 15 10  1  0  0  0  0
 14 16  1  0  0  0  0
 16 17  2  0  0  0  0
 17 18  1  0  0  0  0
 18 19  2  0  0  0  0
 19 15  1  0  0  0  0
 17 20  1  0  0  0  0
 20 21  1  0  0  0  0
 22 23  1  0  0  0  0
 23 18  1  0  0  0  0
 24 25  1  0  0  0  0
 25 26  1  0  0  0  0
 26 27  1  0  0  0  0
 27 28  1  0  0  0  0
 28 29  1  0  0  0  0
 29 22  1  0  0  0  0
 24 21  1  0  0  0  0
M  END
>  <Mol_ID> (271)
1166

>  <Formula> (271)
C22H21N3O4

>  <MolWeight> (271)
391.41984

>  <Cat> (271)
S2922

>  <Name> (271)
Icotinib

>  <Synonyms> (271)
BPI-2009H 

>  <Target> (271)
EGFR

>  <Form> (271)
Free Base

>  <CAS> (271)
610798-31-7

>  <URL> (271)
http://www.selleckchem.com/products/icotinib.html

$$$$
TAK 715.cdx
csChFnd80/05071909292D

 29 32  0  0  0  0  0  0  0  0999 V2000
    4.2000   10.5863    0.0000 C   0  0  0  0  0  0  0  0  0  0  0  0
    2.8000   10.5863    0.0000 C   0  0  0  0  0  0  0  0  0  0  0  0
    2.1000    9.3738    0.0000 C   0  0  0  0  0  0  0  0  0  0  0  0
    0.7000    9.3738    0.0000 C   0  0  0  0  0  0  0  0  0  0  0  0
    0.0000   10.5863    0.0000 C   0  0  0  0  0  0  0  0  0  0  0  0
    0.7000   11.7987    0.0000 C   0  0  0  0  0  0  0  0  0  0  0  0
    2.1000   11.7987    0.0000 C   0  0  0  0  0  0  0  0  0  0  0  0
    4.9000   11.7987    0.0000 O   0  0  0  0  0  0  0  0  0  0  0  0
    4.9000    9.3738    0.0000 N   0  0  0  0  0  0  0  0  0  0  0  0
    4.2000    8.1614    0.0000 C   0  0  0  0  0  0  0  0  0  0  0  0
    4.9000    6.9489    0.0000 C   0  0  0  0  0  0  0  0  0  0  0  0
    4.2000    5.7365    0.0000 C   0  0  0  0  0  0  0  0  0  0  0  0
    2.8000    5.7365    0.0000 C   0  0  0  0  0  0  0  0  0  0  0  0
    2.1000    6.9489    0.0000 C   0  0  0  0  0  0  0  0  0  0  0  0
    2.8000    8.1614    0.0000 N   0  0  0  0  0  0  0  0  0  0  0  0
    6.2923    4.3777    0.0000 S   0  0  0  0  0  0  0  0  0  0  0  0
    6.5834    3.0083    0.0000 C   0  0  0  0  0  0  0  0  0  0  0  0
    5.3710    2.3083    0.0000 N   0  0  0  0  0  0  0  0  0  0  0  0
    4.3306    3.2451    0.0000 C   0  0  0  0  0  0  0  0  0  0  0  0
    4.9000    4.5241    0.0000 C   0  0  0  0  0  0  0  0  0  0  0  0
    2.9612    2.9540    0.0000 C   0  0  0  0  0  0  0  0  0  0  0  0
    2.5285    1.6226    0.0000 C   0  0  0  0  0  0  0  0  0  0  0  0
    1.1591    1.3315    0.0000 C   0  0  0  0  0  0  0  0  0  0  0  0
    0.2224    2.3719    0.0000 C   0  0  0  0  0  0  0  0  0  0  0  0
    0.6550    3.7034    0.0000 C   0  0  0  0  0  0  0  0  0  0  0  0
    2.0244    3.9944    0.0000 C   0  0  0  0  0  0  0  0  0  0  0  0
    0.7265    0.0000    0.0000 C   0  0  0  0  0  0  0  0  0  0  0  0
    7.8624    2.4389    0.0000 C   0  0  0  0  0  0  0  0  0  0  0  0
    8.9504    3.3199    0.0000 C   0  0  0  0  0  0  0  0  0  0  0  0
  1  2  1  0  0  0  0
  2  3  1  0  0  0  0
  3  4  2  0  0  0  0
  4  5  1  0  0  0  0
  5  6  2  0  0  0  0
  6  7  1  0  0  0  0
  2  7  2  0  0  0  0
  1  8  2  0  0  0  0
  1  9  1  0  0  0  0
 10 11  1  0  0  0  0
 11 12  2  0  0  0  0
 12 13  1  0  0  0  0
 13 14  2  0  0  0  0
 14 15  1  0  0  0  0
 10 15  2  0  0  0  0
 16 17  1  0  0  0  0
 17 18  2  0  0  0  0
 18 19  1  0  0  0  0
 19 20  2  0  0  0  0
 16 20  1  0  0  0  0
 21 22  1  0  0  0  0
 22 23  2  0  0  0  0
 23 24  1  0  0  0  0
 24 25  2  0  0  0  0
 25 26  1  0  0  0  0
 21 26  2  0  0  0  0
 23 27  1  0  0  0  0
 19 21  1  0  0  0  0
 28 29  1  0  0  0  0
 17 28  1  0  0  0  0
 12 20  1  0  0  0  0
  9 10  1  0  0  0  0
M  END
>  <Mol_ID> (272)
1167

>  <Formula> (272)
C24H21N3OS

>  <MolWeight> (272)
399.50804

>  <Cat> (272)
S2928

>  <Name> (272)
TAK 715

>  <Synonyms> (272)
N/A 

>  <Target> (272)
p38 MAPK

>  <Form> (272)
Free Base

>  <CAS> (272)
303162-79-0

>  <URL> (272)
http://www.selleckchem.com/products/tak-715.html

$$$$
TDZD-8.cdx
csChFnd80/05071909292D

 15 16  0  0  0  0  0  0  0  0999 V2000
    2.0923    0.6457    0.0000 S   0  0  0  0  0  0  0  0  0  0  0  0
    1.3923    1.8581    0.0000 N   0  0  0  0  0  0  0  0  0  0  0  0
    2.3291    2.8985    0.0000 C   0  0  0  0  0  0  0  0  0  0  0  0
    3.6081    2.3291    0.0000 N   0  0  0  0  0  0  0  0  0  0  0  0
    3.4617    0.9368    0.0000 C   0  0  0  0  0  0  0  0  0  0  0  0
    2.0380    4.2680    0.0000 O   0  0  0  0  0  0  0  0  0  0  0  0
    4.5021    0.0000    0.0000 O   0  0  0  0  0  0  0  0  0  0  0  0
    0.0000    2.0045    0.0000 C   0  0  0  0  0  0  0  0  0  0  0  0
    4.8205    3.0291    0.0000 C   0  0  0  0  0  0  0  0  0  0  0  0
    6.0329    2.3291    0.0000 C   0  0  0  0  0  0  0  0  0  0  0  0
    7.2454    3.0291    0.0000 C   0  0  0  0  0  0  0  0  0  0  0  0
    8.4578    2.3291    0.0000 C   0  0  0  0  0  0  0  0  0  0  0  0
    8.4578    0.9291    0.0000 C   0  0  0  0  0  0  0  0  0  0  0  0
    7.2454    0.2291    0.0000 C   0  0  0  0  0  0  0  0  0  0  0  0
    6.0329    0.9291    0.0000 C   0  0  0  0  0  0  0  0  0  0  0  0
  1  2  1  0  0  0  0
  2  3  1  0  0  0  0
  3  4  1  0  0  0  0
  4  5  1  0  0  0  0
  1  5  1  0  0  0  0
  3  6  2  0  0  0  0
  5  7  2  0  0  0  0
  2  8  1  0  0  0  0
  9 10  1  0  0  0  0
 10 11  1  0  0  0  0
 11 12  2  0  0  0  0
 12 13  1  0  0  0  0
 13 14  2  0  0  0  0
 14 15  1  0  0  0  0
 10 15  2  0  0  0  0
  4  9  1  0  0  0  0
M  END
>  <Mol_ID> (273)
1168

>  <Formula> (273)
C10H10N2O2S

>  <MolWeight> (273)
222.2636

>  <Cat> (273)
S2926

>  <Name> (273)
TDZD-8

>  <Synonyms> (273)
N/A

>  <Target> (273)
GSK-3

>  <Form> (273)
Free Base

>  <CAS> (273)
327036-89-5 

>  <URL> (273)
http://www.selleckchem.com/products/tdzd-8.html

$$$$
H-89.cdx
csChFnd80/05071909292D

 29 29  0  0  0  0  0  0  0  0999 V2000
    0.0000    3.3058    0.0000 C   0  0  0  0  0  0  0  0  0  0  0  0
    0.0000    1.9058    0.0000 C   0  0  0  0  0  0  0  0  0  0  0  0
    1.2124    1.2058    0.0000 C   0  0  0  0  0  0  0  0  0  0  0  0
    2.4249    1.9058    0.0000 C   0  0  0  0  0  0  0  0  0  0  0  0
    2.4249    3.3058    0.0000 C   0  0  0  0  0  0  0  0  0  0  0  0
    1.2124    4.0058    0.0000 C   0  0  0  0  0  0  0  0  0  0  0  0
    3.6373    4.0058    0.0000 C   0  0  0  0  0  0  0  0  0  0  0  0
    3.6373    5.4058    0.0000 C   0  0  0  0  0  0  0  0  0  0  0  0
    2.4249    6.1058    0.0000 N   0  0  0  0  0  0  0  0  0  0  0  0
    1.2124    5.4058    0.0000 C   0  0  0  0  0  0  0  0  0  0  0  0
    3.6331    1.2082    0.0000 S   0  0  0  0  0  0  0  0  0  0  0  0
    4.8455    0.5082    0.0000 N   0  0  0  0  0  0  0  0  0  0  0  0
    4.3307    2.4165    0.0000 O   0  0  0  0  0  0  0  0  0  0  0  0
    2.9355    0.0000    0.0000 O   0  0  0  0  0  0  0  0  0  0  0  0
    6.0538    1.2058    0.0000 C   0  0  0  0  0  0  0  0  0  0  0  0
    7.2620    0.5082    0.0000 C   0  0  0  0  0  0  0  0  0  0  0  0
    8.4702    1.2058    0.0000 N   0  0  0  0  0  0  0  0  0  0  0  0
    9.6784    0.5082    0.0000 C   0  0  0  0  0  0  0  0  0  0  0  0
   10.8867    1.2058    0.0000 C   0  0  0  0  0  0  0  0  0  0  0  0
   12.0949    0.5082    0.0000 C   0  0  0  0  0  0  0  0  0  0  0  0
   13.3031    1.2058    0.0000 C   0  0  0  0  0  0  0  0  0  0  0  0
   14.5156    0.5058    0.0000 C   0  0  0  0  0  0  0  0  0  0  0  0
   15.7280    1.2058    0.0000 C   0  0  0  0  0  0  0  0  0  0  0  0
   15.7280    2.6058    0.0000 C   0  0  0  0  0  0  0  0  0  0  0  0
   14.5156    3.3058    0.0000 C   0  0  0  0  0  0  0  0  0  0  0  0
   13.3031    2.6058    0.0000 C   0  0  0  0  0  0  0  0  0  0  0  0
   16.9362    3.3034    0.0000 Br  0  0  0  0  0  0  0  0  0  0  0  0
    9.1681    3.0529    0.0000 Cl  0  0  0  0  0  0  0  0  0  0  0  0
    7.7681    3.0529    0.0000 Cl  0  0  0  0  0  0  0  0  0  0  0  0
  1  2  2  0  0  0  0
  2  3  1  0  0  0  0
  3  4  2  0  0  0  0
  4  5  1  0  0  0  0
  5  6  2  0  0  0  0
  6  1  1  0  0  0  0
  5  7  1  0  0  0  0
  7  8  2  0  0  0  0
  8  9  1  0  0  0  0
  9 10  2  0  0  0  0
 10  6  1  0  0  0  0
  4 11  1  0  0  0  0
 11 12  1  0  0  0  0
 11 13  2  0  0  0  0
 11 14  2  0  0  0  0
 12 15  1  0  0  0  0
 15 16  1  0  0  0  0
 16 17  1  0  0  0  0
 17 18  1  0  0  0  0
 18 19  1  0  0  0  0
 19 20  2  0  0  0  0
 20 21  1  0  0  0  0
 21 22  2  0  0  0  0
 22 23  1  0  0  0  0
 23 24  2  0  0  0  0
 24 25  1  0  0  0  0
 25 26  2  0  0  0  0
 26 21  1  0  0  0  0
 24 27  1  0  0  0  0
M  END
>  <Mol_ID> (274)
1173

>  <Formula> (274)
C20H22BrCl2N3O2S

>  <MolWeight> (274)
519.28258

>  <Cat> (274)
S1582

>  <Name> (274)
H 89 2HCl

>  <Synonyms> (274)
N/A

>  <Target> (274)
S6 Kinase

>  <Form> (274)
Dihydrochloride

>  <CAS> (274)
130964-39-5

>  <URL> (274)
http://www.selleckchem.com/products/H-89-dihydrochloride.html

$$$$
Pazopanib.cdx
csChFnd80/05071909292D

 31 34  0  0  0  0  0  0  0  0999 V2000
   14.4663    4.2000    0.0000 C   0  0  0  0  0  0  0  0  0  0  0  0
   15.6787    3.5000    0.0000 C   0  0  0  0  0  0  0  0  0  0  0  0
   15.6787    2.1000    0.0000 C   0  0  0  0  0  0  0  0  0  0  0  0
   14.4663    1.4000    0.0000 C   0  0  0  0  0  0  0  0  0  0  0  0
   13.2539    2.1000    0.0000 C   0  0  0  0  0  0  0  0  0  0  0  0
   13.2539    3.5000    0.0000 C   0  0  0  0  0  0  0  0  0  0  0  0
   14.4663    5.6000    0.0000 S   0  0  0  0  0  0  0  0  0  0  0  0
   13.0663    5.6000    0.0000 O   0  0  0  0  0  0  0  0  0  0  0  0
   15.8663    5.6000    0.0000 O   0  0  0  0  0  0  0  0  0  0  0  0
   14.4663    7.0000    0.0000 N   0  0  0  0  0  0  0  0  0  0  0  0
   16.8912    4.2000    0.0000 C   0  0  0  0  0  0  0  0  0  0  0  0
   12.0414    1.4000    0.0000 N   0  0  0  0  0  0  0  0  0  0  0  0
   10.8290    2.1000    0.0000 C   0  0  0  0  0  0  0  0  0  0  0  0
    9.6166    1.4000    0.0000 N   0  0  0  0  0  0  0  0  0  0  0  0
    8.4041    2.1000    0.0000 C   0  0  0  0  0  0  0  0  0  0  0  0
    8.4041    3.5000    0.0000 C   0  0  0  0  0  0  0  0  0  0  0  0
    9.6166    4.2000    0.0000 C   0  0  0  0  0  0  0  0  0  0  0  0
   10.8290    3.5000    0.0000 N   0  0  0  0  0  0  0  0  0  0  0  0
    7.1917    1.4000    0.0000 N   0  0  0  0  0  0  0  0  0  0  0  0
    7.1917    0.0000    0.0000 C   0  0  0  0  0  0  0  0  0  0  0  0
    2.2229    1.6674    0.0000 N   0  0  0  0  0  0  0  0  0  0  0  0
    1.4000    2.8000    0.0000 N   0  0  0  0  0  0  0  0  0  0  0  0
    2.2229    3.9326    0.0000 C   0  0  0  0  0  0  0  0  0  0  0  0
    3.5544    3.5000    0.0000 C   0  0  0  0  0  0  0  0  0  0  0  0
    4.7668    4.2000    0.0000 C   0  0  0  0  0  0  0  0  0  0  0  0
    5.9792    3.5000    0.0000 C   0  0  0  0  0  0  0  0  0  0  0  0
    5.9792    2.1000    0.0000 C   0  0  0  0  0  0  0  0  0  0  0  0
    4.7668    1.4000    0.0000 C   0  0  0  0  0  0  0  0  0  0  0  0
    3.5544    2.1000    0.0000 C   0  0  0  0  0  0  0  0  0  0  0  0
    1.7903    5.2641    0.0000 C   0  0  0  0  0  0  0  0  0  0  0  0
    0.0000    2.8000    0.0000 C   0  0  0  0  0  0  0  0  0  0  0  0
  1  2  1  0  0  0  0
  2  3  2  0  0  0  0
  3  4  1  0  0  0  0
  4  5  2  0  0  0  0
  5  6  1  0  0  0  0
  1  6  2  0  0  0  0
  7  8  2  0  0  0  0
  7  9  2  0  0  0  0
  7 10  1  0  0  0  0
  1  7  1  0  0  0  0
  2 11  1  0  0  0  0
 13 14  1  0  0  0  0
 14 15  2  0  0  0  0
 15 16  1  0  0  0  0
 16 17  2  0  0  0  0
 17 18  1  0  0  0  0
 13 18  2  0  0  0  0
 19 20  1  0  0  0  0
 21 22  1  0  0  0  0
 22 23  1  0  0  0  0
 23 24  2  0  0  0  0
 24 25  1  0  0  0  0
 25 26  2  0  0  0  0
 26 27  1  0  0  0  0
 27 28  2  0  0  0  0
 28 29  1  0  0  0  0
 21 29  2  0  0  0  0
 24 29  1  0  0  0  0
 23 30  1  0  0  0  0
 22 31  1  0  0  0  0
 19 27  1  0  0  0  0
 15 19  1  0  0  0  0
 12 13  1  0  0  0  0
  5 12  1  0  0  0  0
M  END
>  <Mol_ID> (275)
1234

>  <Formula> (275)
C21H23N7O2S

>  <MolWeight> (275)
437.51802

>  <Cat> (275)
S3012

>  <Name> (275)
Pazopanib

>  <Synonyms> (275)
N/A

>  <Target> (275)
VEGFR

>  <Form> (275)
Free Base

>  <CAS> (275)
444731-52-6

>  <URL> (275)
http://www.selleckchem.com/products/pazopanib.html

$$$$
BAY 11-7082.cdx
csChFnd80/05071909292D

 14 14  0  0  0  0  0  0  0  0999 V2000
    4.1952    1.4193    0.0000 C   0  0  0  0  0  0  0  0  0  0  0  0
    5.6187    1.4193    0.0000 S   0  0  0  0  0  0  0  0  0  0  0  0
    3.4958    0.2064    0.0000 C   0  0  0  0  0  0  0  0  0  0  0  0
    3.4958    2.6366    0.0000 C   0  0  0  0  0  0  0  0  0  0  0  0
    7.0171    1.4193    0.0000 C   0  0  0  0  0  0  0  0  0  0  0  0
    5.6187    2.8219    0.0000 O   0  0  0  0  0  0  0  0  0  0  0  0
    5.6187    0.0000    0.0000 O   0  0  0  0  0  0  0  0  0  0  0  0
    2.0976    0.2064    0.0000 C   0  0  0  0  0  0  0  0  0  0  0  0
    2.0976    2.6366    0.0000 C   0  0  0  0  0  0  0  0  0  0  0  0
    7.7163    2.6155    0.0000 C   0  0  0  0  0  0  0  0  0  0  0  0
    1.3984    1.4193    0.0000 C   0  0  0  0  0  0  0  0  0  0  0  0
    9.1145    2.6155    0.0000 C   0  0  0  0  0  0  0  0  0  0  0  0
    0.0000    1.4193    0.0000 C   0  0  0  0  0  0  0  0  0  0  0  0
   10.5131    2.6155    0.0000 N   0  0  0  0  0  0  0  0  0  0  0  0
  1  2  1  0  0  0  0
  1  3  1  0  0  0  0
  1  4  2  0  0  0  0
  2  5  1  0  0  0  0
  2  6  2  0  0  0  0
  2  7  2  0  0  0  0
  3  8  2  0  0  0  0
  4  9  1  0  0  0  0
  5 10  2  0  0  0  0
  8 11  1  0  0  0  0
  9 11  2  0  0  0  0
 10 12  1  0  0  0  0
 11 13  1  0  0  0  0
 12 14  3  0  0  0  0
M  END
>  <Mol_ID> (276)
1243

>  <Formula> (276)
C10H9NO2S

>  <MolWeight> (276)
207.24896

>  <Cat> (276)
S2913

>  <Name> (276)
BAY 11-7082 (BAY 11-7821)

>  <Synonyms> (276)
N/A

>  <Target> (276)
IB/IKK

>  <Form> (276)
Free Base

>  <CAS> (276)
19542-67-7

>  <URL> (276)
http://www.selleckchem.com/products/bay-11-7082-bay-11-7821.html

$$$$
GNF-2.cdx
csChFnd80/05071909292D

 27 29  0  0  0  0  0  0  0  0999 V2000
    2.0927    0.0000    0.0000 C   0  0  0  0  0  0  0  0  0  0  0  0
    3.4927    0.0000    0.0000 C   0  0  0  0  0  0  0  0  0  0  0  0
    4.1927    1.2124    0.0000 C   0  0  0  0  0  0  0  0  0  0  0  0
    3.4927    2.4249    0.0000 C   0  0  0  0  0  0  0  0  0  0  0  0
    2.0927    2.4249    0.0000 C   0  0  0  0  0  0  0  0  0  0  0  0
    1.3927    1.2124    0.0000 C   0  0  0  0  0  0  0  0  0  0  0  0
    1.3951    3.6331    0.0000 C   0  0  0  0  0  0  0  0  0  0  0  0
    2.0927    4.8413    0.0000 O   0  0  0  0  0  0  0  0  0  0  0  0
    0.0000    3.6331    0.0000 N   0  0  0  0  0  0  0  0  0  0  0  0
    5.5879    1.2124    0.0000 C   0  0  0  0  0  0  0  0  0  0  0  0
    6.2878    0.0000    0.0000 N   0  0  0  0  0  0  0  0  0  0  0  0
    7.6879    0.0000    0.0000 C   0  0  0  0  0  0  0  0  0  0  0  0
    8.3879    1.2124    0.0000 N   0  0  0  0  0  0  0  0  0  0  0  0
    7.6879    2.4249    0.0000 C   0  0  0  0  0  0  0  0  0  0  0  0
    6.2878    2.4249    0.0000 C   0  0  0  0  0  0  0  0  0  0  0  0
    8.3854    3.6331    0.0000 N   0  0  0  0  0  0  0  0  0  0  0  0
    9.7854    3.6331    0.0000 C   0  0  0  0  0  0  0  0  0  0  0  0
   10.4854    2.4207    0.0000 C   0  0  0  0  0  0  0  0  0  0  0  0
   11.8854    2.4207    0.0000 C   0  0  0  0  0  0  0  0  0  0  0  0
   12.5854    3.6331    0.0000 C   0  0  0  0  0  0  0  0  0  0  0  0
   11.8854    4.8455    0.0000 C   0  0  0  0  0  0  0  0  0  0  0  0
   10.4854    4.8455    0.0000 C   0  0  0  0  0  0  0  0  0  0  0  0
   13.9854    3.6331    0.0000 O   0  0  0  0  0  0  0  0  0  0  0  0
   14.6830    4.8413    0.0000 C   0  0  0  0  0  0  0  0  0  0  0  0
   15.3830    6.0538    0.0000 F   0  0  0  0  0  0  0  0  0  0  0  0
   13.4748    5.5389    0.0000 F   0  0  0  0  0  0  0  0  0  0  0  0
   15.8912    4.1438    0.0000 F   0  0  0  0  0  0  0  0  0  0  0  0
  1  2  2  0  0  0  0
  2  3  1  0  0  0  0
  3  4  2  0  0  0  0
  4  5  1  0  0  0  0
  5  6  2  0  0  0  0
  6  1  1  0  0  0  0
  5  7  1  0  0  0  0
  7  8  2  0  0  0  0
  7  9  1  0  0  0  0
  3 10  1  0  0  0  0
 10 11  2  0  0  0  0
 11 12  1  0  0  0  0
 12 13  2  0  0  0  0
 13 14  1  0  0  0  0
 14 15  2  0  0  0  0
 15 10  1  0  0  0  0
 14 16  1  0  0  0  0
 16 17  1  0  0  0  0
 17 18  2  0  0  0  0
 18 19  1  0  0  0  0
 19 20  2  0  0  0  0
 20 21  1  0  0  0  0
 21 22  2  0  0  0  0
 22 17  1  0  0  0  0
 20 23  1  0  0  0  0
 23 24  1  0  0  0  0
 24 25  1  0  0  0  0
 24 26  1  0  0  0  0
 24 27  1  0  0  0  0
M  END
>  <Mol_ID> (277)
1245

>  <Formula> (277)
C18H13F3N4O2

>  <MolWeight> (277)
374.3166296

>  <Cat> (277)
S2899

>  <Name> (277)
GNF-2

>  <Synonyms> (277)
N/A

>  <Target> (277)
Bcr-Abl

>  <Form> (277)
Free Base

>  <CAS> (277)
778270-11-4

>  <URL> (277)
http://www.selleckchem.com/products/gnf-2.html

$$$$
OSI-906.cdx
csChFnd80/05071909292D

 32 37  0  0  0  0  0  0  0  0999 V2000
    5.3092    8.2165    0.0000 C   0  0  0  0  0  0  0  0  0  0  0  0
    5.3092    6.8165    0.0000 C   0  0  0  0  0  0  0  0  0  0  0  0
    6.5216    6.1165    0.0000 C   0  0  0  0  0  0  0  0  0  0  0  0
    7.7340    6.8165    0.0000 C   0  0  0  0  0  0  0  0  0  0  0  0
    7.7340    8.2165    0.0000 C   0  0  0  0  0  0  0  0  0  0  0  0
    6.5216    8.9165    0.0000 C   0  0  0  0  0  0  0  0  0  0  0  0
    8.9465    6.1165    0.0000 N   0  0  0  0  0  0  0  0  0  0  0  0
   10.1589    6.8165    0.0000 C   0  0  0  0  0  0  0  0  0  0  0  0
   10.1589    8.2165    0.0000 C   0  0  0  0  0  0  0  0  0  0  0  0
    8.9465    8.9165    0.0000 C   0  0  0  0  0  0  0  0  0  0  0  0
   11.3671    6.1190    0.0000 C   0  0  0  0  0  0  0  0  0  0  0  0
   11.3671    4.7190    0.0000 C   0  0  0  0  0  0  0  0  0  0  0  0
   12.5796    4.0190    0.0000 C   0  0  0  0  0  0  0  0  0  0  0  0
   13.7920    4.7190    0.0000 C   0  0  0  0  0  0  0  0  0  0  0  0
   13.7920    6.1190    0.0000 C   0  0  0  0  0  0  0  0  0  0  0  0
   12.5796    6.8190    0.0000 C   0  0  0  0  0  0  0  0  0  0  0  0
    4.1009    6.1190    0.0000 C   0  0  0  0  0  0  0  0  0  0  0  0
    2.8220    6.6884    0.0000 C   0  0  0  0  0  0  0  0  0  0  0  0
    1.8852    5.6480    0.0000 N   0  0  0  0  0  0  0  0  0  0  0  0
    2.5852    4.4355    0.0000 C   0  0  0  0  0  0  0  0  0  0  0  0
    3.9546    4.7266    0.0000 N   0  0  0  0  0  0  0  0  0  0  0  0
    2.1220    7.9008    0.0000 C   0  0  0  0  0  0  0  0  0  0  0  0
    0.7220    7.9008    0.0000 N   0  0  0  0  0  0  0  0  0  0  0  0
    0.0220    6.6884    0.0000 C   0  0  0  0  0  0  0  0  0  0  0  0
    0.7220    5.4760    0.0000 C   0  0  0  0  0  0  0  0  0  0  0  0
    2.8195    9.1090    0.0000 N   0  0  0  0  0  0  0  0  0  0  0  0
    2.0177    3.1610    0.0000 C   0  0  1  0  0  0  0  0  0  0  0  0
    0.7107    2.6593    0.0000 C   0  0  0  0  0  0  0  0  0  0  0  0
    1.2124    1.3523    0.0000 C   0  0  1  0  0  0  0  0  0  0  0  0
    2.5194    1.8540    0.0000 C   0  0  0  0  0  0  0  0  0  0  0  0
    0.0000    0.6523    0.0000 C   0  0  0  0  0  0  0  0  0  0  0  0
    1.5748    0.0000    0.0000 O   0  0  0  0  0  0  0  0  0  0  0  0
  1  2  2  0  0  0  0
  2  3  1  0  0  0  0
  3  4  2  0  0  0  0
  4  5  1  0  0  0  0
  5  6  2  0  0  0  0
  6  1  1  0  0  0  0
  4  7  1  0  0  0  0
  7  8  2  0  0  0  0
  8  9  1  0  0  0  0
  9 10  2  0  0  0  0
 10  5  1  0  0  0  0
  8 11  1  0  0  0  0
 11 12  2  0  0  0  0
 12 13  1  0  0  0  0
 13 14  2  0  0  0  0
 14 15  1  0  0  0  0
 15 16  2  0  0  0  0
 16 11  1  0  0  0  0
  2 17  1  0  0  0  0
 17 18  2  0  0  0  0
 18 19  1  0  0  0  0
 19 20  1  0  0  0  0
 20 21  2  0  0  0  0
 21 17  1  0  0  0  0
 18 22  1  0  0  0  0
 22 23  2  0  0  0  0
 23 24  1  0  0  0  0
 24 25  2  0  0  0  0
 25 19  1  0  0  0  0
 22 26  1  0  0  0  0
 27 20  1  6  0  0  0
 27 28  1  0  0  0  0
 28 29  1  0  0  0  0
 29 30  1  0  0  0  0
 30 27  1  0  0  0  0
 29 31  1  1  0  0  0
 29 32  1  6  0  0  0
M  END
>  <Mol_ID> (278)
1256

>  <Formula> (278)
C26H23N5O

>  <MolWeight> (278)
421.49372

>  <Cat> (278)
S1091

>  <Name> (278)
OSI-906 (Linsitinib)

>  <Synonyms> (278)
N/A

>  <Target> (278)
IGF-1R

>  <Form> (278)
Free Base

>  <CAS> (278)
867160-71-2

>  <URL> (278)
http://www.selleckchem.com/products/OSI-906.html

$$$$
CabozantinibXL-184) malate.cdx
csChFnd80/05071909292D

 46 49  0  0  0  0  0  0  0  0999 V2000
    4.8413    7.5051    0.0000 C   0  0  0  0  0  0  0  0  0  0  0  0
    4.8413    6.1051    0.0000 C   0  0  0  0  0  0  0  0  0  0  0  0
    6.0538    5.4051    0.0000 C   0  0  0  0  0  0  0  0  0  0  0  0
    7.2662    6.1051    0.0000 C   0  0  0  0  0  0  0  0  0  0  0  0
    7.2662    7.5051    0.0000 C   0  0  0  0  0  0  0  0  0  0  0  0
    6.0538    8.2051    0.0000 N   0  0  0  0  0  0  0  0  0  0  0  0
    3.6289    8.2051    0.0000 C   0  0  0  0  0  0  0  0  0  0  0  0
    2.4165    7.5051    0.0000 C   0  0  0  0  0  0  0  0  0  0  0  0
    2.4165    6.1051    0.0000 C   0  0  0  0  0  0  0  0  0  0  0  0
    3.6289    5.4051    0.0000 C   0  0  0  0  0  0  0  0  0  0  0  0
    1.2082    8.2027    0.0000 O   0  0  0  0  0  0  0  0  0  0  0  0
    1.2082    5.4076    0.0000 O   0  0  0  0  0  0  0  0  0  0  0  0
    0.0000    6.1051    0.0000 C   0  0  0  0  0  0  0  0  0  0  0  0
    0.0000    7.5051    0.0000 C   0  0  0  0  0  0  0  0  0  0  0  0
    6.0538    4.0100    0.0000 O   0  0  0  0  0  0  0  0  0  0  0  0
    7.2662    3.3100    0.0000 C   0  0  0  0  0  0  0  0  0  0  0  0
    7.2662    1.9100    0.0000 C   0  0  0  0  0  0  0  0  0  0  0  0
    8.4786    1.2100    0.0000 C   0  0  0  0  0  0  0  0  0  0  0  0
    9.6911    1.9100    0.0000 C   0  0  0  0  0  0  0  0  0  0  0  0
    9.6911    3.3100    0.0000 C   0  0  0  0  0  0  0  0  0  0  0  0
    8.4786    4.0100    0.0000 C   0  0  0  0  0  0  0  0  0  0  0  0
   10.8993    1.2124    0.0000 N   0  0  0  0  0  0  0  0  0  0  0  0
   12.1075    1.9100    0.0000 C   0  0  0  0  0  0  0  0  0  0  0  0
   13.3158    1.2124    0.0000 C   0  0  0  0  0  0  0  0  0  0  0  0
   14.5240    1.9100    0.0000 C   0  0  0  0  0  0  0  0  0  0  0  0
   12.1075    3.3051    0.0000 O   0  0  0  0  0  0  0  0  0  0  0  0
   15.7322    1.2124    0.0000 N   0  0  0  0  0  0  0  0  0  0  0  0
   14.5240    3.3051    0.0000 O   0  0  0  0  0  0  0  0  0  0  0  0
   16.9404    1.9100    0.0000 C   0  0  0  0  0  0  0  0  0  0  0  0
   18.1529    1.2100    0.0000 C   0  0  0  0  0  0  0  0  0  0  0  0
   19.3653    1.9100    0.0000 C   0  0  0  0  0  0  0  0  0  0  0  0
   19.3653    3.3100    0.0000 C   0  0  0  0  0  0  0  0  0  0  0  0
   18.1529    4.0100    0.0000 C   0  0  0  0  0  0  0  0  0  0  0  0
   16.9404    3.3100    0.0000 C   0  0  0  0  0  0  0  0  0  0  0  0
   20.5735    4.0076    0.0000 F   0  0  0  0  0  0  0  0  0  0  0  0
   12.6158    0.0000    0.0000 C   0  0  0  0  0  0  0  0  0  0  0  0
   14.0158    0.0000    0.0000 C   0  0  0  0  0  0  0  0  0  0  0  0
   11.8057    7.5609    0.0000 C   0  0  0  0  0  0  0  0  0  0  0  0
   13.0181    8.2609    0.0000 C   0  0  0  0  0  0  0  0  0  0  0  0
   14.2264    7.5633    0.0000 C   0  0  2  0  0  0  0  0  0  0  0  0
   14.2264    6.1681    0.0000 O   0  0  0  0  0  0  0  0  0  0  0  0
   15.4346    8.2609    0.0000 C   0  0  0  0  0  0  0  0  0  0  0  0
   10.5975    8.2584    0.0000 O   0  0  0  0  0  0  0  0  0  0  0  0
   11.8057    6.1657    0.0000 O   0  0  0  0  0  0  0  0  0  0  0  0
   15.4346    9.6560    0.0000 O   0  0  0  0  0  0  0  0  0  0  0  0
   16.6428    7.5633    0.0000 O   0  0  0  0  0  0  0  0  0  0  0  0
  1  2  2  0  0  0  0
  2  3  1  0  0  0  0
  3  4  2  0  0  0  0
  4  5  1  0  0  0  0
  5  6  2  0  0  0  0
  6  1  1  0  0  0  0
  1  7  1  0  0  0  0
  7  8  2  0  0  0  0
  8  9  1  0  0  0  0
  9 10  2  0  0  0  0
 10  2  1  0  0  0  0
  8 11  1  0  0  0  0
  9 12  1  0  0  0  0
 12 13  1  0  0  0  0
 11 14  1  0  0  0  0
  3 15  1  0  0  0  0
 15 16  1  0  0  0  0
 16 17  2  0  0  0  0
 17 18  1  0  0  0  0
 18 19  2  0  0  0  0
 19 20  1  0  0  0  0
 20 21  2  0  0  0  0
 21 16  1  0  0  0  0
 19 22  1  0  0  0  0
 22 23  1  0  0  0  0
 23 24  1  0  0  0  0
 24 25  1  0  0  0  0
 23 26  2  0  0  0  0
 25 27  1  0  0  0  0
 25 28  2  0  0  0  0
 27 29  1  0  0  0  0
 29 30  2  0  0  0  0
 30 31  1  0  0  0  0
 31 32  2  0  0  0  0
 32 33  1  0  0  0  0
 33 34  2  0  0  0  0
 34 29  1  0  0  0  0
 32 35  1  0  0  0  0
 24 36  1  0  0  0  0
 36 37  1  0  0  0  0
 37 24  1  0  0  0  0
 38 39  1  0  0  0  0
 39 40  1  0  0  0  0
 40 41  1  1  0  0  0
 40 42  1  0  0  0  0
 38 43  2  0  0  0  0
 38 44  1  0  0  0  0
 42 45  2  0  0  0  0
 42 46  1  0  0  0  0
M  END
>  <Mol_ID> (279)
1260

>  <Formula> (279)
C32H30FN3O10

>  <MolWeight> (279)
635.5931032

>  <Cat> (279)
S4001

>  <Name> (279)
Cabozantinib malate

>  <Synonyms> (279)
N/A

>  <Target> (279)
VEGFR

>  <Form> (279)
Malate

>  <CAS> (279)
1140909-48-3

>  <URL> (279)
http://www.selleckchem.com/products/cabozantinib-malate.html

$$$$
PF-04708671.cdx
csChFnd80/05071909292D

 28 31  0  0  0  0  0  0  0  0999 V2000
    3.7302   10.5244    0.0000 N   0  0  0  0  0  0  0  0  0  0  0  0
    3.5958    9.1251    0.0000 C   0  0  0  0  0  0  0  0  0  0  0  0
    4.8724    8.5723    0.0000 N   0  0  0  0  0  0  0  0  0  0  0  0
    1.2125    2.1044    0.0000 C   0  0  0  0  0  0  0  0  0  0  0  0
    1.2190    0.6971    0.0000 C   0  0  0  0  0  0  0  0  0  0  0  0
    2.4379    0.0000    0.0000 N   0  0  0  0  0  0  0  0  0  0  0  0
    3.6535    0.7107    0.0000 C   0  0  0  0  0  0  0  0  0  0  0  0
    3.6395    2.1287    0.0000 N   0  0  0  0  0  0  0  0  0  0  0  0
    2.4129    2.8172    0.0000 C   0  0  0  0  0  0  0  0  0  0  0  0
    2.4129    4.2172    0.0000 N   0  0  0  0  0  0  0  0  0  0  0  0
    3.6200    4.9299    0.0000 C   0  0  0  0  0  0  0  0  0  0  0  0
    3.6104    6.3289    0.0000 C   0  0  0  0  0  0  0  0  0  0  0  0
    2.3862    7.0266    0.0000 N   0  0  0  0  0  0  0  0  0  0  0  0
    1.1767    6.3150    0.0000 C   0  0  0  0  0  0  0  0  0  0  0  0
    1.1836    4.9054    0.0000 C   0  0  0  0  0  0  0  0  0  0  0  0
    0.0000    2.8044    0.0000 C   0  0  0  0  0  0  0  0  0  0  0  0
    0.0000    4.2009    0.0000 C   0  0  0  0  0  0  0  0  0  0  0  0
    2.3862    8.4267    0.0000 C   0  0  0  0  0  0  0  0  0  0  0  0
    5.0893   10.8246    0.0000 C   0  0  0  0  0  0  0  0  0  0  0  0
    5.7961    9.6243    0.0000 C   0  0  0  0  0  0  0  0  0  0  0  0
    7.1858    9.6380    0.0000 C   0  0  0  0  0  0  0  0  0  0  0  0
    7.8703   10.8589    0.0000 C   0  0  0  0  0  0  0  0  0  0  0  0
    7.1549   12.0520    0.0000 C   0  0  0  0  0  0  0  0  0  0  0  0
    5.7677   12.0324    0.0000 C   0  0  0  0  0  0  0  0  0  0  0  0
    9.2703   10.8589    0.0000 C   0  0  0  0  0  0  0  0  0  0  0  0
   10.6703   10.8589    0.0000 F   0  0  0  0  0  0  0  0  0  0  0  0
    9.2703   12.2670    0.0000 F   0  0  0  0  0  0  0  0  0  0  0  0
    9.2703    9.4670    0.0000 F   0  0  0  0  0  0  0  0  0  0  0  0
  2  3  2  0  0  0  0
  1  2  1  0  0  0  0
  3 20  1  0  0  0  0
 19  1  1  0  0  0  0
  4  5  2  0  0  0  0
  5  6  1  0  0  0  0
  6  7  2  0  0  0  0
  7  8  1  0  0  0  0
  8  9  2  0  0  0  0
  9  4  1  0  0  0  0
  9 10  1  0  0  0  0
 10 11  1  0  0  0  0
 10 15  1  0  0  0  0
 11 12  1  0  0  0  0
 12 13  1  0  0  0  0
 13 14  1  0  0  0  0
 14 15  1  0  0  0  0
  4 16  1  0  0  0  0
 16 17  1  0  0  0  0
 13 18  1  0  0  0  0
 18  2  1  0  0  0  0
 19 20  2  0  0  0  0
 20 21  1  0  0  0  0
 21 22  2  0  0  0  0
 22 23  1  0  0  0  0
 23 24  2  0  0  0  0
 24 19  1  0  0  0  0
 22 25  1  0  0  0  0
 25 26  1  0  0  0  0
 25 27  1  0  0  0  0
 25 28  1  0  0  0  0
M  END
>  <Mol_ID> (280)
1261

>  <Formula> (280)
C19H21F3N6

>  <MolWeight> (280)
390.4054496

>  <Cat> (280)
S2163

>  <Name> (280)
PF-4708671

>  <Synonyms> (280)
PF-04708671

>  <Target> (280)
S6 Kinase

>  <Form> (280)
Free Base

>  <CAS> (280)
1255517-76-0

>  <URL> (280)
http://www.selleckchem.com/products/pf-4708671.html

$$$$
SL327.cdx
csChFnd80/05071909292D

 23 24  0  0  0  0  0  0  0  0999 V2000
    0.0000    2.1000    0.0000 C   0  0  0  0  0  0  0  0  0  0  0  0
    0.0000    0.7000    0.0000 C   0  0  0  0  0  0  0  0  0  0  0  0
    1.2124    0.0000    0.0000 C   0  0  0  0  0  0  0  0  0  0  0  0
    2.4249    0.7000    0.0000 C   0  0  0  0  0  0  0  0  0  0  0  0
    2.4249    2.1000    0.0000 C   0  0  0  0  0  0  0  0  0  0  0  0
    1.2124    2.8000    0.0000 C   0  0  0  0  0  0  0  0  0  0  0  0
    1.2124    4.1951    0.0000 C   0  0  0  0  0  0  0  0  0  0  0  0
    0.0042    4.8927    0.0000 F   0  0  0  0  0  0  0  0  0  0  0  0
    2.4207    4.8927    0.0000 F   0  0  0  0  0  0  0  0  0  0  0  0
    1.2124    5.5903    0.0000 F   0  0  0  0  0  0  0  0  0  0  0  0
    3.6331    2.7976    0.0000 C   0  0  0  0  0  0  0  0  0  0  0  0
    4.8413    2.1000    0.0000 C   0  0  0  0  0  0  0  0  0  0  0  0
    3.6331    4.1927    0.0000 C   0  0  0  0  0  0  0  0  0  0  0  0
    3.6331    5.5927    0.0000 N   0  0  0  0  0  0  0  0  0  0  0  0
    6.0496    2.7976    0.0000 S   0  0  0  0  0  0  0  0  0  0  0  0
    4.8413    0.7049    0.0000 N   0  0  0  0  0  0  0  0  0  0  0  0
    7.2578    2.1000    0.0000 C   0  0  0  0  0  0  0  0  0  0  0  0
    7.2578    0.7000    0.0000 C   0  0  0  0  0  0  0  0  0  0  0  0
    8.4702    0.0000    0.0000 C   0  0  0  0  0  0  0  0  0  0  0  0
    9.6827    0.7000    0.0000 C   0  0  0  0  0  0  0  0  0  0  0  0
    9.6827    2.1000    0.0000 C   0  0  0  0  0  0  0  0  0  0  0  0
    8.4702    2.8000    0.0000 C   0  0  0  0  0  0  0  0  0  0  0  0
   10.8909    0.0024    0.0000 N   0  0  0  0  0  0  0  0  0  0  0  0
  1  2  2  0  0  0  0
  2  3  1  0  0  0  0
  3  4  2  0  0  0  0
  4  5  1  0  0  0  0
  5  6  2  0  0  0  0
  6  1  1  0  0  0  0
  6  7  1  0  0  0  0
  7  8  1  0  0  0  0
  7  9  1  0  0  0  0
  7 10  1  0  0  0  0
  5 11  1  0  0  0  0
 11 12  2  0  0  0  0
 11 13  1  0  0  0  0
 12 15  1  0  0  0  0
 12 16  1  0  0  0  0
 15 17  1  0  0  0  0
 17 18  2  0  0  0  0
 18 19  1  0  0  0  0
 19 20  2  0  0  0  0
 20 21  1  0  0  0  0
 21 22  2  0  0  0  0
 22 17  1  0  0  0  0
 20 23  1  0  0  0  0
 13 14  3  0  0  0  0
M  END
>  <Mol_ID> (281)
1266

>  <Formula> (281)
C16H12F3N3S

>  <MolWeight> (281)
335.3467896

>  <Cat> (281)
S1066

>  <Name> (281)
SL327

>  <Synonyms> (281)
N/A

>  <Target> (281)
MEK

>  <Form> (281)
Free Base

>  <CAS> (281)
305350-87-2

>  <URL> (281)
http://www.selleckchem.com/products/SL327.html

$$$$
sennoside B.cdx
csChFnd80/05071909292D

 62 69  0  0  0  0  0  0  0  0999 V2000
    7.2780   10.4953    0.0000 C   0  0  1  0  0  0  0  0  0  0  0  0
    7.2780    9.0953    0.0000 C   0  0  2  0  0  0  0  0  0  0  0  0
    6.0634   11.2000    0.0000 C   0  0  0  0  0  0  0  0  0  0  0  0
    8.4925   11.2000    0.0000 C   0  0  0  0  0  0  0  0  0  0  0  0
    8.4925    8.4000    0.0000 C   0  0  0  0  0  0  0  0  0  0  0  0
    6.0634    8.4000    0.0000 C   0  0  0  0  0  0  0  0  0  0  0  0
    6.0634   12.6000    0.0000 C   0  0  0  0  0  0  0  0  0  0  0  0
    4.8581   10.4953    0.0000 C   0  0  0  0  0  0  0  0  0  0  0  0
    8.4925   12.6000    0.0000 C   0  0  0  0  0  0  0  0  0  0  0  0
    9.7070   10.4953    0.0000 C   0  0  0  0  0  0  0  0  0  0  0  0
    8.4925    7.0000    0.0000 C   0  0  0  0  0  0  0  0  0  0  0  0
    9.7070    9.0953    0.0000 C   0  0  0  0  0  0  0  0  0  0  0  0
    6.0634    7.0000    0.0000 C   0  0  0  0  0  0  0  0  0  0  0  0
    4.8581    9.0953    0.0000 C   0  0  0  0  0  0  0  0  0  0  0  0
    7.2780   13.2953    0.0000 C   0  0  0  0  0  0  0  0  0  0  0  0
    4.8581   13.2953    0.0000 C   0  0  0  0  0  0  0  0  0  0  0  0
    3.6437   11.2000    0.0000 C   0  0  0  0  0  0  0  0  0  0  0  0
    9.7070   13.2953    0.0000 C   0  0  0  0  0  0  0  0  0  0  0  0
   10.9217   11.2000    0.0000 C   0  0  0  0  0  0  0  0  0  0  0  0
    7.2780    6.2953    0.0000 C   0  0  0  0  0  0  0  0  0  0  0  0
    9.7070    6.2953    0.0000 C   0  0  0  0  0  0  0  0  0  0  0  0
   10.9217    8.4000    0.0000 C   0  0  0  0  0  0  0  0  0  0  0  0
    4.8581    6.2953    0.0000 C   0  0  0  0  0  0  0  0  0  0  0  0
    3.6437    8.4000    0.0000 C   0  0  0  0  0  0  0  0  0  0  0  0
    7.2780   14.6953    0.0000 O   0  0  0  0  0  0  0  0  0  0  0  0
    3.6437   12.6000    0.0000 C   0  0  0  0  0  0  0  0  0  0  0  0
    4.8581   14.6953    0.0000 O   0  0  0  0  0  0  0  0  0  0  0  0
    2.4289   10.4953    0.0000 C   0  0  0  0  0  0  0  0  0  0  0  0
    9.7070   14.6953    0.0000 O   0  0  0  0  0  0  0  0  0  0  0  0
   10.9217   12.6000    0.0000 C   0  0  0  0  0  0  0  0  0  0  0  0
    7.2780    4.8952    0.0000 O   0  0  0  0  0  0  0  0  0  0  0  0
   10.9217    7.0000    0.0000 C   0  0  0  0  0  0  0  0  0  0  0  0
    9.7070    4.8952    0.0000 O   0  0  0  0  0  0  0  0  0  0  0  0
   12.1267    9.0953    0.0000 C   0  0  0  0  0  0  0  0  0  0  0  0
    4.8581    4.8952    0.0000 O   0  0  0  0  0  0  0  0  0  0  0  0
    3.6437    7.0000    0.0000 C   0  0  0  0  0  0  0  0  0  0  0  0
    1.2144   11.2000    0.0000 O   0  0  0  0  0  0  0  0  0  0  0  0
    2.4289    9.0953    0.0000 O   0  0  0  0  0  0  0  0  0  0  0  0
   10.9217   15.3998    0.0000 C   0  0  2  0  0  0  0  0  0  0  0  0
   13.3416    8.4000    0.0000 O   0  0  0  0  0  0  0  0  0  0  0  0
   12.1267   10.4953    0.0000 O   0  0  0  0  0  0  0  0  0  0  0  0
    3.6437    4.2000    0.0000 C   0  0  2  0  0  0  0  0  0  0  0  0
   12.1267   14.6953    0.0000 O   0  0  0  0  0  0  0  0  0  0  0  0
   10.9217   16.7998    0.0000 C   0  0  1  0  0  0  0  0  0  0  0  0
    3.6437    2.8000    0.0000 O   0  0  0  0  0  0  0  0  0  0  0  0
    2.4289    4.8952    0.0000 C   0  0  1  0  0  0  0  0  0  0  0  0
   13.3416   15.3998    0.0000 C   0  0  1  0  0  0  0  0  0  0  0  0
   12.1267   17.4951    0.0000 C   0  0  2  0  0  0  0  0  0  0  0  0
    9.7070   17.4951    0.0000 O   0  0  0  0  0  0  0  0  0  0  0  0
    2.4289    2.0956    0.0000 C   0  0  1  0  0  0  0  0  0  0  0  0
    1.2144    4.2000    0.0000 C   0  0  2  0  0  0  0  0  0  0  0  0
    2.4289    6.2953    0.0000 O   0  0  0  0  0  0  0  0  0  0  0  0
   13.3416   16.7998    0.0000 C   0  0  2  0  0  0  0  0  0  0  0  0
   14.5559   14.6953    0.0000 C   0  0  0  0  0  0  0  0  0  0  0  0
   12.1267   18.8951    0.0000 O   0  0  0  0  0  0  0  0  0  0  0  0
    1.2144    2.8000    0.0000 C   0  0  2  0  0  0  0  0  0  0  0  0
    2.4289    0.6956    0.0000 C   0  0  0  0  0  0  0  0  0  0  0  0
    0.0000    4.8952    0.0000 O   0  0  0  0  0  0  0  0  0  0  0  0
   14.5559   17.4951    0.0000 O   0  0  0  0  0  0  0  0  0  0  0  0
   14.5559   13.2953    0.0000 O   0  0  0  0  0  0  0  0  0  0  0  0
    0.0000    2.0956    0.0000 O   0  0  0  0  0  0  0  0  0  0  0  0
    1.2144    0.0000    0.0000 O   0  0  0  0  0  0  0  0  0  0  0  0
  1  2  1  0  0  0  0
  1  3  1  0  0  0  0
  1  4  1  1  0  0  0
  2  5  1  0  0  0  0
  2  6  1  6  0  0  0
  3  7  1  0  0  0  0
  3  8  2  0  0  0  0
  4  9  2  0  0  0  0
  4 10  1  0  0  0  0
  5 11  1  0  0  0  0
  5 12  2  0  0  0  0
  6 13  2  0  0  0  0
  6 14  1  0  0  0  0
  7 15  1  0  0  0  0
  7 16  2  0  0  0  0
  8 17  1  0  0  0  0
  9 18  1  0  0  0  0
  9 15  1  0  0  0  0
 10 19  2  0  0  0  0
 11 20  1  0  0  0  0
 11 21  2  0  0  0  0
 12 22  1  0  0  0  0
 13 23  1  0  0  0  0
 13 20  1  0  0  0  0
 14 24  2  0  0  0  0
 15 25  2  0  0  0  0
 16 26  1  0  0  0  0
 16 27  1  0  0  0  0
 17 28  1  0  0  0  0
 17 26  2  0  0  0  0
 18 29  1  0  0  0  0
 18 30  2  0  0  0  0
 19 30  1  0  0  0  0
 20 31  2  0  0  0  0
 21 32  1  0  0  0  0
 21 33  1  0  0  0  0
 22 34  1  0  0  0  0
 22 32  2  0  0  0  0
 23 35  1  0  0  0  0
 23 36  2  0  0  0  0
 24 36  1  0  0  0  0
 28 37  1  0  0  0  0
 28 38  2  0  0  0  0
 39 29  1  1  0  0  0
 34 40  1  0  0  0  0
 34 41  2  0  0  0  0
 42 35  1  6  0  0  0
 39 43  1  0  0  0  0
 39 44  1  0  0  0  0
 42 45  1  0  0  0  0
 42 46  1  0  0  0  0
 43 47  1  0  0  0  0
 44 48  1  0  0  0  0
 44 49  1  6  0  0  0
 45 50  1  0  0  0  0
 46 51  1  0  0  0  0
 46 52  1  1  0  0  0
 47 53  1  0  0  0  0
 47 54  1  1  0  0  0
 48 55  1  1  0  0  0
 48 53  1  0  0  0  0
 50 56  1  0  0  0  0
 50 57  1  6  0  0  0
 51 58  1  6  0  0  0
 51 56  1  0  0  0  0
 53 59  1  6  0  0  0
 54 60  1  0  0  0  0
 56 61  1  1  0  0  0
 57 62  1  0  0  0  0
M  END
>  <Mol_ID> (282)
1277

>  <Formula> (282)
C42H38O20

>  <MolWeight> (282)
862.73912

>  <Cat> (282)
S4018

>  <Name> (282)
Sennoside B

>  <Synonyms> (282)
N/A

>  <Target> (282)
Others

>  <Form> (282)
Free Base

>  <CAS> (282)
128-57-4

>  <URL> (282)
http://www.selleckchem.com/products/sennoside-b.html

$$$$
JNK-IN-8.cdx
csChFnd80/05071909292D

 38 41  0  0  0  0  0  0  0  0999 V2000
   10.5000    1.2124    0.0000 C   0  0  0  0  0  0  0  0  0  0  0  0
    9.1000    1.2124    0.0000 C   0  0  0  0  0  0  0  0  0  0  0  0
    8.4000    2.4249    0.0000 C   0  0  0  0  0  0  0  0  0  0  0  0
    7.0000    2.4249    0.0000 C   0  0  0  0  0  0  0  0  0  0  0  0
    6.3000    1.2124    0.0000 C   0  0  0  0  0  0  0  0  0  0  0  0
    7.0000    0.0000    0.0000 C   0  0  0  0  0  0  0  0  0  0  0  0
    8.4000    0.0000    0.0000 C   0  0  0  0  0  0  0  0  0  0  0  0
   11.2000    0.0000    0.0000 O   0  0  0  0  0  0  0  0  0  0  0  0
   11.2000    2.4249    0.0000 N   0  0  0  0  0  0  0  0  0  0  0  0
   12.6000    2.4249    0.0000 C   0  0  0  0  0  0  0  0  0  0  0  0
   13.3000    1.2124    0.0000 C   0  0  0  0  0  0  0  0  0  0  0  0
   14.7000    1.2124    0.0000 C   0  0  0  0  0  0  0  0  0  0  0  0
   15.4000    2.4249    0.0000 C   0  0  0  0  0  0  0  0  0  0  0  0
   14.7000    3.6373    0.0000 C   0  0  0  0  0  0  0  0  0  0  0  0
   13.3000    3.6373    0.0000 C   0  0  0  0  0  0  0  0  0  0  0  0
   16.8000    2.4249    0.0000 N   0  0  0  0  0  0  0  0  0  0  0  0
   17.5000    3.6373    0.0000 C   0  0  0  0  0  0  0  0  0  0  0  0
   18.9000    3.6373    0.0000 N   0  0  0  0  0  0  0  0  0  0  0  0
   19.6000    4.8497    0.0000 C   0  0  0  0  0  0  0  0  0  0  0  0
   18.9000    6.0622    0.0000 C   0  0  0  0  0  0  0  0  0  0  0  0
   17.5000    6.0622    0.0000 C   0  0  0  0  0  0  0  0  0  0  0  0
   16.8000    4.8497    0.0000 N   0  0  0  0  0  0  0  0  0  0  0  0
   21.7000    6.0622    0.0000 C   0  0  0  0  0  0  0  0  0  0  0  0
   21.0000    4.8497    0.0000 C   0  0  0  0  0  0  0  0  0  0  0  0
   21.7000    3.6373    0.0000 C   0  0  0  0  0  0  0  0  0  0  0  0
   23.1000    3.6373    0.0000 C   0  0  0  0  0  0  0  0  0  0  0  0
   23.8000    4.8497    0.0000 C   0  0  0  0  0  0  0  0  0  0  0  0
   23.1000    6.0622    0.0000 N   0  0  0  0  0  0  0  0  0  0  0  0
   15.4000    0.0000    0.0000 C   0  0  0  0  0  0  0  0  0  0  0  0
    6.3000    3.6373    0.0000 N   0  0  0  0  0  0  0  0  0  0  0  0
    4.9000    3.6373    0.0000 C   0  0  0  0  0  0  0  0  0  0  0  0
    4.2000    4.8497    0.0000 C   0  0  0  0  0  0  0  0  0  0  0  0
    2.8000    4.8497    0.0000 C   0  0  0  0  0  0  0  0  0  0  0  0
    2.1000    6.0622    0.0000 C   0  0  0  0  0  0  0  0  0  0  0  0
    4.2000    2.4249    0.0000 O   0  0  0  0  0  0  0  0  0  0  0  0
    0.7000    6.0622    0.0000 N   0  0  0  0  0  0  0  0  0  0  0  0
    0.0000    7.2746    0.0000 C   0  0  0  0  0  0  0  0  0  0  0  0
    0.0000    4.8497    0.0000 C   0  0  0  0  0  0  0  0  0  0  0  0
  1  2  1  0  0  0  0
  2  3  1  0  0  0  0
  3  4  2  0  0  0  0
  4  5  1  0  0  0  0
  5  6  2  0  0  0  0
  6  7  1  0  0  0  0
  2  7  2  0  0  0  0
  1  8  2  0  0  0  0
  1  9  1  0  0  0  0
 10 11  1  0  0  0  0
 11 12  2  0  0  0  0
 12 13  1  0  0  0  0
 13 14  2  0  0  0  0
 14 15  1  0  0  0  0
 10 15  2  0  0  0  0
 17 18  1  0  0  0  0
 18 19  2  0  0  0  0
 19 20  1  0  0  0  0
 20 21  2  0  0  0  0
 21 22  1  0  0  0  0
 17 22  2  0  0  0  0
 23 24  1  0  0  0  0
 24 25  2  0  0  0  0
 25 26  1  0  0  0  0
 26 27  2  0  0  0  0
 27 28  1  0  0  0  0
 23 28  2  0  0  0  0
 19 24  1  0  0  0  0
 16 17  1  0  0  0  0
 13 16  1  0  0  0  0
 12 29  1  0  0  0  0
  9 10  1  0  0  0  0
 31 32  1  0  0  0  0
 32 33  2  0  0  0  0
 33 34  1  0  0  0  0
 31 35  2  0  0  0  0
 36 37  1  0  0  0  0
 36 38  1  0  0  0  0
 34 36  1  0  0  0  0
 30 31  1  0  0  0  0
  4 30  1  0  0  0  0
M  END
>  <Mol_ID> (283)
1280

>  <Formula> (283)
C29H29N7O2

>  <MolWeight> (283)
507.58626

>  <Cat> (283)
S4901

>  <Name> (283)
JNK-IN-8

>  <Synonyms> (283)
N/A

>  <Target> (283)
Free Base

>  <Form> (283)
Free Base

>  <CAS> (283)
1410880-22-6

>  <URL> (283)
http://www.selleckchem.com/products/jnk-in-8.html

$$$$
SC-514.cdx
csChFnd80/05071909292D

 14 15  0  0  0  0  0  0  0  0999 V2000
    4.6891    2.0150    0.0000 C   0  0  0  0  0  0  0  0  0  0  0  0
    4.0533    0.7676    0.0000 C   0  0  0  0  0  0  0  0  0  0  0  0
    2.6705    0.9866    0.0000 C   0  0  0  0  0  0  0  0  0  0  0  0
    2.4516    2.3695    0.0000 C   0  0  0  0  0  0  0  0  0  0  0  0
    3.6991    3.0050    0.0000 S   0  0  0  0  0  0  0  0  0  0  0  0
    7.0572    1.2432    0.0000 C   0  0  0  0  0  0  0  0  0  0  0  0
    6.0672    2.2332    0.0000 C   0  0  0  0  0  0  0  0  0  0  0  0
    6.7029    3.4806    0.0000 C   0  0  0  0  0  0  0  0  0  0  0  0
    8.0857    3.2615    0.0000 C   0  0  0  0  0  0  0  0  0  0  0  0
    8.3046    1.8787    0.0000 S   0  0  0  0  0  0  0  0  0  0  0  0
    1.2084    3.0030    0.0000 C   0  0  0  0  0  0  0  0  0  0  0  0
    1.2084    4.3984    0.0000 O   0  0  0  0  0  0  0  0  0  0  0  0
    0.0000    2.3054    0.0000 N   0  0  0  0  0  0  0  0  0  0  0  0
    1.6839    0.0000    0.0000 N   0  0  0  0  0  0  0  0  0  0  0  0
  1  2  2  0  0  0  0
  2  3  1  0  0  0  0
  3  4  2  0  0  0  0
  4  5  1  0  0  0  0
  1  5  1  0  0  0  0
  6  7  2  0  0  0  0
  7  8  1  0  0  0  0
  8  9  2  0  0  0  0
  9 10  1  0  0  0  0
  6 10  1  0  0  0  0
  1  7  1  0  0  0  0
 11 12  2  0  0  0  0
 11 13  1  0  0  0  0
  4 11  1  0  0  0  0
  3 14  1  0  0  0  0
M  END
>  <Mol_ID> (284)
1283

>  <Formula> (284)
C9H8N2OS2

>  <MolWeight> (284)
224.30262

>  <Cat> (284)
S4907

>  <Name> (284)
SC-514 

>  <Synonyms> (284)
N/A

>  <Target> (284)
IB/IKK

>  <Form> (284)
Free Base

>  <CAS> (284)
354812-17-2

>  <URL> (284)
http://www.selleckchem.com/products/sc-514.html

$$$$
MDBN.cdx
csChFnd80/05071909292D

 14 15  0  0  0  0  0  0  0  0999 V2000
    2.1544    2.1000    0.0000 C   0  0  0  0  0  0  0  0  0  0  0  0
    2.1544    0.7000    0.0000 C   0  0  0  0  0  0  0  0  0  0  0  0
    3.3668    0.0000    0.0000 C   0  0  0  0  0  0  0  0  0  0  0  0
    4.5792    0.7000    0.0000 C   0  0  0  0  0  0  0  0  0  0  0  0
    4.5792    2.1000    0.0000 C   0  0  0  0  0  0  0  0  0  0  0  0
    3.3668    2.8000    0.0000 C   0  0  0  0  0  0  0  0  0  0  0  0
    0.8229    2.5326    0.0000 O   0  0  0  0  0  0  0  0  0  0  0  0
    0.0000    1.4000    0.0000 C   0  0  0  0  0  0  0  0  0  0  0  0
    0.8229    0.2674    0.0000 O   0  0  0  0  0  0  0  0  0  0  0  0
    5.7917    2.8000    0.0000 C   0  0  0  0  0  0  0  0  0  0  0  0
    7.0041    2.1000    0.0000 C   0  0  0  0  0  0  0  0  0  0  0  0
    8.2166    2.8000    0.0000 N   0  3  0  0  0  0  0  0  0  0  0  0
    8.2166    4.2000    0.0000 O   0  0  0  0  0  0  0  0  0  0  0  0
    9.4290    2.1000    0.0000 O   0  5  0  0  0  0  0  0  0  0  0  0
  1  2  2  0  0  0  0
  2  3  1  0  0  0  0
  3  4  2  0  0  0  0
  4  5  1  0  0  0  0
  5  6  2  0  0  0  0
  6  1  1  0  0  0  0
  1  7  1  0  0  0  0
  7  8  1  0  0  0  0
  8  9  1  0  0  0  0
  9  2  1  0  0  0  0
  5 10  1  0  0  0  0
 10 11  2  0  0  0  0
 11 12  1  0  0  0  0
 12 13  2  0  0  0  0
 12 14  1  0  0  0  0
M  END
>  <Mol_ID> (285)
1415

>  <Formula> (285)
C9H7NO4

>  <MolWeight> (285)
193.15618

>  <Cat> (285)
S4921

>  <Name> (285)
MNS (3,4-Methylenedioxy--nitrostyrene)

>  <Synonyms> (285)
N/A

>  <Target> (285)
Tyrosinase,p97,Syk,Src

>  <Form> (285)
Free Base

>  <CAS> (285)
1485-00-3

>  <URL> (285)
http://www.selleckchem.com/products/mdbn.html

$$$$
VX-745.cdx
csChFnd80/05071909292D

 28 31  0  0  0  0  0  0  0  0999 V2000
    2.4207    2.8000    0.0000 C   0  0  0  0  0  0  0  0  0  0  0  0
    1.2082    2.1000    0.0000 C   0  0  0  0  0  0  0  0  0  0  0  0
    1.2082    0.7000    0.0000 C   0  0  0  0  0  0  0  0  0  0  0  0
    2.4207    0.0000    0.0000 C   0  0  0  0  0  0  0  0  0  0  0  0
    3.6331    0.7000    0.0000 C   0  0  0  0  0  0  0  0  0  0  0  0
    3.6331    2.1000    0.0000 C   0  0  0  0  0  0  0  0  0  0  0  0
    0.0000    2.7976    0.0000 F   0  0  0  0  0  0  0  0  0  0  0  0
    4.8413    2.7976    0.0000 F   0  0  0  0  0  0  0  0  0  0  0  0
    4.8413    0.0024    0.0000 S   0  0  0  0  0  0  0  0  0  0  0  0
    6.0496    0.7000    0.0000 C   0  0  0  0  0  0  0  0  0  0  0  0
    7.2620    0.0000    0.0000 C   0  0  0  0  0  0  0  0  0  0  0  0
    8.4744    0.7000    0.0000 C   0  0  0  0  0  0  0  0  0  0  0  0
    8.4744    2.1000    0.0000 C   0  0  0  0  0  0  0  0  0  0  0  0
    7.2620    2.8000    0.0000 N   0  0  0  0  0  0  0  0  0  0  0  0
    6.0496    2.1000    0.0000 N   0  0  0  0  0  0  0  0  0  0  0  0
    9.6869    2.8000    0.0000 C   0  0  0  0  0  0  0  0  0  0  0  0
    9.6869    4.2000    0.0000 C   0  0  0  0  0  0  0  0  0  0  0  0
    8.4744    4.9000    0.0000 N   0  0  0  0  0  0  0  0  0  0  0  0
    7.2620    4.2000    0.0000 C   0  0  0  0  0  0  0  0  0  0  0  0
   10.8951    4.8976    0.0000 O   0  0  0  0  0  0  0  0  0  0  0  0
   10.8951    2.1024    0.0000 C   0  0  0  0  0  0  0  0  0  0  0  0
   10.8951    0.7024    0.0000 C   0  0  0  0  0  0  0  0  0  0  0  0
   12.1075    0.0024    0.0000 C   0  0  0  0  0  0  0  0  0  0  0  0
   13.3200    0.7024    0.0000 C   0  0  0  0  0  0  0  0  0  0  0  0
   13.3200    2.1024    0.0000 C   0  0  0  0  0  0  0  0  0  0  0  0
   12.1075    2.8024    0.0000 C   0  0  0  0  0  0  0  0  0  0  0  0
    9.6869    0.0049    0.0000 Cl  0  0  0  0  0  0  0  0  0  0  0  0
   12.1075    4.1976    0.0000 Cl  0  0  0  0  0  0  0  0  0  0  0  0
  1  2  2  0  0  0  0
  2  3  1  0  0  0  0
  3  4  2  0  0  0  0
  4  5  1  0  0  0  0
  5  6  2  0  0  0  0
  6  1  1  0  0  0  0
  2  7  1  0  0  0  0
  6  8  1  0  0  0  0
  5  9  1  0  0  0  0
  9 10  1  0  0  0  0
 10 11  1  0  0  0  0
 11 12  2  0  0  0  0
 12 13  1  0  0  0  0
 13 14  1  0  0  0  0
 14 15  1  0  0  0  0
 15 10  2  0  0  0  0
 13 16  2  0  0  0  0
 16 17  1  0  0  0  0
 17 18  1  0  0  0  0
 18 19  2  0  0  0  0
 19 14  1  0  0  0  0
 17 20  2  0  0  0  0
 16 21  1  0  0  0  0
 21 22  2  0  0  0  0
 22 23  1  0  0  0  0
 23 24  2  0  0  0  0
 24 25  1  0  0  0  0
 25 26  2  0  0  0  0
 26 21  1  0  0  0  0
 22 27  1  0  0  0  0
 26 28  1  0  0  0  0
M  END
>  <Mol_ID> (286)
1463

>  <Formula> (286)
C19H9Cl2F2N3OS

>  <MolWeight> (286)
436.2620664

>  <Cat> (286)
S1458

>  <Name> (286)
VX-745

>  <Synonyms> (286)
N/A

>  <Target> (286)
p38 MAPK 

>  <Form> (286)
Free Base

>  <CAS> (286)
209410-46-8

>  <URL> (286)
http://www.selleckchem.com/products/VX-745.html

$$$$
untitled.cdx
csChFnd80/05071909292D

 23 26  0  0  0  0  0  0  0  0999 V2000
    4.2572    1.2898    0.0000 C   0  0  2  0  0  0  0  0  0  0  0  0
    2.8425    1.2140    0.0000 C   0  0  1  0  0  0  0  0  0  0  0  0
    2.3420    2.4815    0.0000 C   0  0  2  0  0  0  0  0  0  0  0  0
    3.4421    3.4132    0.0000 O   0  0  0  0  0  0  0  0  0  0  0  0
    4.5937    2.6157    0.0000 C   0  0  1  0  0  0  0  0  0  0  0  0
    0.9912    2.8048    0.0000 C   0  0  0  0  0  0  0  0  0  0  0  0
    0.0000    1.8136    0.0000 O   0  0  0  0  0  0  0  0  0  0  0  0
    5.9065    3.1073    0.0000 N   0  0  0  0  0  0  0  0  0  0  0  0
    6.2908    4.4452    0.0000 C   0  0  0  0  0  0  0  0  0  0  0  0
    7.0775    2.3493    0.0000 C   0  0  0  0  0  0  0  0  0  0  0  0
    8.1625    3.2567    0.0000 C   0  0  0  0  0  0  0  0  0  0  0  0
    7.6135    4.4632    0.0000 C   0  0  0  0  0  0  0  0  0  0  0  0
    8.4153    5.5860    0.0000 C   0  0  0  0  0  0  0  0  0  0  0  0
    7.6991    6.8437    0.0000 N   0  0  0  0  0  0  0  0  0  0  0  0
    6.2952    6.8600    0.0000 C   0  0  0  0  0  0  0  0  0  0  0  0
    5.5877    5.6520    0.0000 N   0  0  0  0  0  0  0  0  0  0  0  0
    9.7836    5.4535    0.0000 N   0  0  0  0  0  0  0  0  0  0  0  0
   10.3532    4.2016    0.0000 N   0  0  0  0  0  0  0  0  0  0  0  0
    9.5468    3.0724    0.0000 C   0  0  0  0  0  0  0  0  0  0  0  0
   10.1044    1.7863    0.0000 N   0  0  0  0  0  0  0  0  0  0  0  0
   10.5983    6.5942    0.0000 C   0  0  0  0  0  0  0  0  0  0  0  0
    2.1416    0.0000    0.0000 O   0  0  0  0  0  0  0  0  0  0  0  0
    5.1527    0.2113    0.0000 O   0  0  0  0  0  0  0  0  0  0  0  0
  1  2  1  0  0  0  0
  2  3  1  0  0  0  0
  3  4  1  0  0  0  0
  4  5  1  0  0  0  0
  1  5  1  0  0  0  0
  3  6  1  1  0  0  0
  6  7  1  0  0  0  0
  8  9  1  0  0  0  0
  8 10  1  0  0  0  0
 10 11  2  0  0  0  0
  9 12  2  0  0  0  0
 12 11  1  0  0  0  0
 12 13  1  0  0  0  0
 13 14  2  0  0  0  0
 14 15  1  0  0  0  0
 15 16  2  0  0  0  0
 16  9  1  0  0  0  0
 13 17  1  0  0  0  0
 17 18  1  0  0  0  0
 18 19  2  0  0  0  0
 19 11  1  0  0  0  0
 19 20  1  0  0  0  0
 17 21  1  0  0  0  0
  5  8  1  1  0  0  0
  1 23  1  6  0  0  0
  2 22  1  6  0  0  0
M  END
>  <Mol_ID> (287)
1464

>  <Formula> (287)
C13H16N6O4

>  <MolWeight> (287)
320.30394

>  <Cat> (287)
S1117

>  <Name> (287)
Triciribine

>  <Synonyms> (287)
N/A

>  <Target> (287)
Akt

>  <Form> (287)
Free Base

>  <CAS> (287)
35943-35-2

>  <URL> (287)
http://www.selleckchem.com/products/Triciribine.html

$$$$
Taxifolin (Dihydroquercetin).cdx
csChFnd80/05071909292D

 22 24  0  0  0  0  0  0  0  0999 V2000
    1.2124    3.5000    0.0000 C   0  0  0  0  0  0  0  0  0  0  0  0
    1.2124    2.1000    0.0000 C   0  0  0  0  0  0  0  0  0  0  0  0
    2.4249    1.4000    0.0000 C   0  0  0  0  0  0  0  0  0  0  0  0
    3.6373    2.1000    0.0000 C   0  0  0  0  0  0  0  0  0  0  0  0
    3.6373    3.5000    0.0000 C   0  0  0  0  0  0  0  0  0  0  0  0
    2.4249    4.2000    0.0000 C   0  0  0  0  0  0  0  0  0  0  0  0
    4.8497    1.4000    0.0000 C   0  0  0  0  0  0  0  0  0  0  0  0
    6.0622    2.1000    0.0000 C   0  0  1  0  0  0  0  0  0  0  0  0
    6.0622    3.5000    0.0000 C   0  0  2  0  0  0  0  0  0  0  0  0
    4.8497    4.2000    0.0000 O   0  0  0  0  0  0  0  0  0  0  0  0
    4.8497    0.0000    0.0000 O   0  0  0  0  0  0  0  0  0  0  0  0
    2.4249    0.0000    0.0000 O   0  0  0  0  0  0  0  0  0  0  0  0
    0.0000    4.2000    0.0000 O   0  0  0  0  0  0  0  0  0  0  0  0
    7.2746    4.2000    0.0000 C   0  0  0  0  0  0  0  0  0  0  0  0
    7.2746    1.4000    0.0000 O   0  0  0  0  0  0  0  0  0  0  0  0
    8.4871    3.5000    0.0000 C   0  0  0  0  0  0  0  0  0  0  0  0
    9.6995    4.2000    0.0000 C   0  0  0  0  0  0  0  0  0  0  0  0
    9.6995    5.6000    0.0000 C   0  0  0  0  0  0  0  0  0  0  0  0
    8.4871    6.3000    0.0000 C   0  0  0  0  0  0  0  0  0  0  0  0
    7.2746    5.6000    0.0000 C   0  0  0  0  0  0  0  0  0  0  0  0
   10.9119    6.3000    0.0000 O   0  0  0  0  0  0  0  0  0  0  0  0
   10.9119    3.5000    0.0000 O   0  0  0  0  0  0  0  0  0  0  0  0
  1  2  2  0  0  0  0
  2  3  1  0  0  0  0
  3  4  2  0  0  0  0
  4  5  1  0  0  0  0
  5  6  2  0  0  0  0
  6  1  1  0  0  0  0
  4  7  1  0  0  0  0
  7  8  1  0  0  0  0
  8  9  1  0  0  0  0
  9 10  1  0  0  0  0
 10  5  1  0  0  0  0
  7 11  2  0  0  0  0
  3 12  1  0  0  0  0
  1 13  1  0  0  0  0
  9 14  1  6  0  0  0
  8 15  1  1  0  0  0
 14 16  2  0  0  0  0
 16 17  1  0  0  0  0
 17 18  2  0  0  0  0
 18 19  1  0  0  0  0
 19 20  2  0  0  0  0
 20 14  1  0  0  0  0
 18 21  1  0  0  0  0
 17 22  1  0  0  0  0
M  END
>  <Mol_ID> (288)
1480

>  <Formula> (288)
C15H12O7

>  <MolWeight> (288)
304.25158

>  <Cat> (288)
S2366

>  <Name> (288)
Taxifolin (Dihydroquercetin)

>  <Synonyms> (288)
Dihydroquercetin, Taxifolin-(+)

>  <Target> (288)
VEGFR

>  <Form> (288)
Free Base

>  <CAS> (288)
480-18-2

>  <URL> (288)
http://www.selleckchem.com/products/Taxifolin(Dihydroquercetin).html

$$$$
Refametinib (RDEA119, Bay 86-9766) .cdx
csChFnd80/05071909292D

 31 33  0  0  0  0  0  0  0  0999 V2000
    8.4870    3.5000    0.0000 C   0  0  0  0  0  0  0  0  0  0  0  0
    8.4870    2.1000    0.0000 C   0  0  0  0  0  0  0  0  0  0  0  0
    9.6995    1.4000    0.0000 C   0  0  0  0  0  0  0  0  0  0  0  0
   10.9119    2.1000    0.0000 C   0  0  0  0  0  0  0  0  0  0  0  0
   10.9119    3.5000    0.0000 C   0  0  0  0  0  0  0  0  0  0  0  0
    9.6995    4.2000    0.0000 C   0  0  0  0  0  0  0  0  0  0  0  0
   12.1244    4.2000    0.0000 F   0  0  0  0  0  0  0  0  0  0  0  0
   12.1244    1.4000    0.0000 F   0  0  0  0  0  0  0  0  0  0  0  0
    9.6995    5.6000    0.0000 N   0  0  0  0  0  0  0  0  0  0  0  0
   10.9119    6.3000    0.0000 C   0  0  0  0  0  0  0  0  0  0  0  0
    7.2746    4.2000    0.0000 N   0  0  0  0  0  0  0  0  0  0  0  0
    7.2746    1.4000    0.0000 O   0  0  0  0  0  0  0  0  0  0  0  0
    7.2746    0.0000    0.0000 C   0  0  0  0  0  0  0  0  0  0  0  0
    6.0622    3.5000    0.0000 S   0  0  0  0  0  0  0  0  0  0  0  0
    4.8497    4.2000    0.0000 C   0  0  0  0  0  0  0  0  0  0  0  0
    3.6373    3.5000    0.0000 C   0  0  0  0  0  0  0  0  0  0  0  0
    2.4249    4.2000    0.0000 C   0  0  1  0  0  0  0  0  0  0  0  0
    1.2124    3.5000    0.0000 C   0  0  0  0  0  0  0  0  0  0  0  0
    0.0000    4.2000    0.0000 O   0  0  0  0  0  0  0  0  0  0  0  0
   12.1244    5.6000    0.0000 C   0  0  0  0  0  0  0  0  0  0  0  0
   13.3368    6.3000    0.0000 C   0  0  0  0  0  0  0  0  0  0  0  0
   13.3368    7.7000    0.0000 C   0  0  0  0  0  0  0  0  0  0  0  0
   12.1244    8.4000    0.0000 C   0  0  0  0  0  0  0  0  0  0  0  0
   10.9119    7.7000    0.0000 C   0  0  0  0  0  0  0  0  0  0  0  0
    9.6995    8.4000    0.0000 F   0  0  0  0  0  0  0  0  0  0  0  0
   14.5492    8.4000    0.0000 I   0  0  0  0  0  0  0  0  0  0  0  0
    6.0622    2.1000    0.0000 O   0  0  0  0  0  0  0  0  0  0  0  0
    4.8497    2.8000    0.0000 O   0  0  0  0  0  0  0  0  0  0  0  0
    5.5497    5.4124    0.0000 C   0  0  0  0  0  0  0  0  0  0  0  0
    4.1497    5.4124    0.0000 C   0  0  0  0  0  0  0  0  0  0  0  0
    2.4249    5.6000    0.0000 O   0  0  0  0  0  0  0  0  0  0  0  0
  1  2  2  0  0  0  0
  2  3  1  0  0  0  0
  3  4  2  0  0  0  0
  4  5  1  0  0  0  0
  5  6  2  0  0  0  0
  6  1  1  0  0  0  0
  5  7  1  0  0  0  0
  4  8  1  0  0  0  0
  6  9  1  0  0  0  0
  9 10  1  0  0  0  0
  1 11  1  0  0  0  0
  2 12  1  0  0  0  0
 12 13  1  0  0  0  0
 11 14  1  0  0  0  0
 14 15  1  0  0  0  0
 15 16  1  0  0  0  0
 16 17  1  0  0  0  0
 17 18  1  0  0  0  0
 18 19  1  0  0  0  0
 10 20  2  0  0  0  0
 20 21  1  0  0  0  0
 21 22  2  0  0  0  0
 22 23  1  0  0  0  0
 23 24  2  0  0  0  0
 24 10  1  0  0  0  0
 24 25  1  0  0  0  0
 22 26  1  0  0  0  0
 14 27  2  0  0  0  0
 14 28  2  0  0  0  0
 15 29  1  0  0  0  0
 29 30  1  0  0  0  0
 30 15  1  0  0  0  0
 17 31  1  1  0  0  0
M  END
>  <Mol_ID> (289)
1505

>  <Formula> (289)
C19H20F3IN2O5S

>  <MolWeight> (289)
572.3371796

>  <Cat> (289)
S1089

>  <Name> (289)
Refametinib (RDEA119, Bay 86-9766)

>  <Synonyms> (289)
BAY 869766

>  <Target> (289)
MEK

>  <Form> (289)
Free Base

>  <CAS> (289)
923032-37-5

>  <URL> (289)
http://www.selleckchem.com/products/refametinib-rdea119-bay86-9766.html

$$$$
BIBW2992 (Afatinib).cdx
csChFnd80/05071909292D

 34 37  0  0  0  0  0  0  0  0999 V2000
   11.9000    5.8531    0.0000 C   0  0  0  0  0  0  0  0  0  0  0  0
   12.6000    7.0655    0.0000 C   0  0  0  0  0  0  0  0  0  0  0  0
   14.0000    7.0655    0.0000 C   0  0  0  0  0  0  0  0  0  0  0  0
   14.7000    8.2779    0.0000 C   0  0  0  0  0  0  0  0  0  0  0  0
   12.6000    4.6406    0.0000 O   0  0  0  0  0  0  0  0  0  0  0  0
   10.5000    5.8531    0.0000 N   0  0  0  0  0  0  0  0  0  0  0  0
   16.1000    8.2779    0.0000 N   0  0  0  0  0  0  0  0  0  0  0  0
   16.8000    9.4904    0.0000 C   0  0  0  0  0  0  0  0  0  0  0  0
   16.8000    7.0655    0.0000 C   0  0  0  0  0  0  0  0  0  0  0  0
    7.7000    1.0033    0.0000 N   0  0  0  0  0  0  0  0  0  0  0  0
    6.3000    1.0033    0.0000 C   0  0  0  0  0  0  0  0  0  0  0  0
    5.6000    2.2157    0.0000 N   0  0  0  0  0  0  0  0  0  0  0  0
    6.3000    3.4282    0.0000 C   0  0  0  0  0  0  0  0  0  0  0  0
    7.7000    3.4282    0.0000 C   0  0  0  0  0  0  0  0  0  0  0  0
    8.4000    4.6406    0.0000 C   0  0  0  0  0  0  0  0  0  0  0  0
    9.8000    4.6406    0.0000 C   0  0  0  0  0  0  0  0  0  0  0  0
   10.5000    3.4282    0.0000 C   0  0  0  0  0  0  0  0  0  0  0  0
    9.8000    2.2157    0.0000 C   0  0  0  0  0  0  0  0  0  0  0  0
    8.4000    2.2157    0.0000 C   0  0  0  0  0  0  0  0  0  0  0  0
   11.9000    3.4282    0.0000 O   0  0  0  0  0  0  0  0  0  0  0  0
   13.0710    0.0000    0.0000 O   0  0  0  0  0  0  0  0  0  0  0  0
   12.0306    0.9368    0.0000 C   0  0  0  0  0  0  0  0  0  0  0  0
   12.6000    2.2157    0.0000 C   0  0  2  0  0  0  0  0  0  0  0  0
   13.9923    2.0694    0.0000 C   0  0  0  0  0  0  0  0  0  0  0  0
   14.2834    0.7000    0.0000 C   0  0  0  0  0  0  0  0  0  0  0  0
    5.6000    4.6406    0.0000 N   0  0  0  0  0  0  0  0  0  0  0  0
    4.2000    4.6406    0.0000 C   0  0  0  0  0  0  0  0  0  0  0  0
    3.5000    3.4282    0.0000 C   0  0  0  0  0  0  0  0  0  0  0  0
    2.1000    3.4282    0.0000 C   0  0  0  0  0  0  0  0  0  0  0  0
    1.4000    4.6406    0.0000 C   0  0  0  0  0  0  0  0  0  0  0  0
    2.1000    5.8531    0.0000 C   0  0  0  0  0  0  0  0  0  0  0  0
    3.5000    5.8531    0.0000 C   0  0  0  0  0  0  0  0  0  0  0  0
    0.0000    4.6406    0.0000 F   0  0  0  0  0  0  0  0  0  0  0  0
    1.4000    2.2157    0.0000 Cl  0  0  0  0  0  0  0  0  0  0  0  0
  1  2  1  0  0  0  0
  2  3  2  0  0  0  0
  3  4  1  0  0  0  0
  1  5  2  0  0  0  0
  1  6  1  0  0  0  0
  7  8  1  0  0  0  0
  7  9  1  0  0  0  0
  4  7  1  0  0  0  0
 10 11  1  0  0  0  0
 11 12  2  0  0  0  0
 12 13  1  0  0  0  0
 13 14  2  0  0  0  0
 14 15  1  0  0  0  0
 15 16  2  0  0  0  0
 16 17  1  0  0  0  0
 17 18  2  0  0  0  0
 18 19  1  0  0  0  0
 10 19  2  0  0  0  0
 14 19  1  0  0  0  0
 21 22  1  0  0  0  0
 22 23  1  0  0  0  0
 23 24  1  0  0  0  0
 24 25  1  0  0  0  0
 21 25  1  0  0  0  0
 23 20  1  1  0  0  0
 17 20  1  0  0  0  0
 27 28  1  0  0  0  0
 28 29  2  0  0  0  0
 29 30  1  0  0  0  0
 30 31  2  0  0  0  0
 31 32  1  0  0  0  0
 27 32  2  0  0  0  0
 30 33  1  0  0  0  0
 29 34  1  0  0  0  0
 26 27  1  0  0  0  0
 13 26  1  0  0  0  0
  6 16  1  0  0  0  0
M  END
>  <Mol_ID> (290)
1528

>  <Formula> (290)
C24H25ClFN5O3

>  <MolWeight> (290)
485.9384032

>  <Cat> (290)
S1011

>  <Name> (290)
Afatinib (BIBW2992)

>  <Synonyms> (290)
N/A

>  <Target> (290)
EGFR

>  <Form> (290)
Free Base

>  <CAS> (290)
439081-18-2

>  <URL> (290)
http://www.selleckchem.com/products/BIBW2992.html

$$$$
R-Ruxolitinib.cdx
csChFnd80/05071909292D

 23 26  0  0  0  0  0  0  0  0999 V2000
    1.2083    0.0000    0.0000 N   0  0  0  0  0  0  0  0  0  0  0  0
    0.0000    0.6929    0.0000 C   0  0  0  0  0  0  0  0  0  0  0  0
    0.0000    2.0931    0.0000 N   0  0  0  0  0  0  0  0  0  0  0  0
    1.2083    2.8002    0.0000 C   0  0  0  0  0  0  0  0  0  0  0  0
    2.4165    0.6929    0.0000 C   0  0  0  0  0  0  0  0  0  0  0  0
    2.4165    2.0931    0.0000 C   0  0  0  0  0  0  0  0  0  0  0  0
    3.7478    2.5258    0.0000 C   0  0  0  0  0  0  0  0  0  0  0  0
    4.5709    1.3929    0.0000 C   0  0  0  0  0  0  0  0  0  0  0  0
    3.7480    0.2605    0.0000 N   0  0  0  0  0  0  0  0  0  0  0  0
    1.2083    4.2003    0.0000 C   0  0  0  0  0  0  0  0  0  0  0  0
    0.0813    5.0191    0.0000 C   0  0  0  0  0  0  0  0  0  0  0  0
    0.5139    6.3505    0.0000 N   0  0  0  0  0  0  0  0  0  0  0  0
    1.9141    6.3505    0.0000 N   0  0  0  0  0  0  0  0  0  0  0  0
    2.3465    5.0191    0.0000 C   0  0  0  0  0  0  0  0  0  0  0  0
    2.7371    7.4831    0.0000 C   0  0  1  0  0  0  0  0  0  0  0  0
    2.1678    8.7622    0.0000 C   0  0  0  0  0  0  0  0  0  0  0  0
    4.1295    7.3367    0.0000 C   0  0  0  0  0  0  0  0  0  0  0  0
    2.8679    9.9745    0.0000 C   0  0  0  0  0  0  0  0  0  0  0  0
    1.9311   11.0150    0.0000 C   0  0  0  0  0  0  0  0  0  0  0  0
    0.6521   10.4457    0.0000 C   0  0  0  0  0  0  0  0  0  0  0  0
    0.7984    9.0533    0.0000 C   0  0  0  0  0  0  0  0  0  0  0  0
    4.9496    8.4653    0.0000 C   0  0  0  0  0  0  0  0  0  0  0  0
    5.7726    9.5979    0.0000 N   0  0  0  0  0  0  0  0  0  0  0  0
  5  1  1  0  0  0  0
  1  2  2  0  0  0  0
  2  3  1  0  0  0  0
  3  4  2  0  0  0  0
  6  4  1  0  0  0  0
  4 10  1  0  0  0  0
  5  6  2  0  0  0  0
  9  5  1  0  0  0  0
  6  7  1  0  0  0  0
  7  8  2  0  0  0  0
  8  9  1  0  0  0  0
 14 10  2  0  0  0  0
 10 11  1  0  0  0  0
 11 12  2  0  0  0  0
 12 13  1  0  0  0  0
 13 14  1  0  0  0  0
 15 13  1  0  0  0  0
 15 16  1  0  0  0  0
 15 17  1  1  0  0  0
 16 18  1  0  0  0  0
 18 19  1  0  0  0  0
 19 20  1  0  0  0  0
 20 21  1  0  0  0  0
 21 16  1  0  0  0  0
 17 22  1  0  0  0  0
 22 23  3  0  0  0  0
M  END
>  <Mol_ID> (291)
1537

>  <Formula> (291)
C17H18N6

>  <MolWeight> (291)
306.36502

>  <Cat> (291)
S1378

>  <Name> (291)
Ruxolitinib (INCB018424)

>  <Synonyms> (291)
N/A

>  <Target> (291)
JAK

>  <Form> (291)
Free Base

>  <CAS> (291)
941678-49-5

>  <URL> (291)
http://www.selleckchem.com/products/INCB18424.html

$$$$
Temsirolimus.cdx
csChFnd80/05071909292D

 73 76  0  0  0  0  0  0  0  0999 V2000
   10.5798   10.2237    0.0000 C   0  0  2  0  0  0  0  0  0  0  0  0
    9.4144   10.9995    0.0000 C   0  0  1  0  0  0  0  0  0  0  0  0
    9.5035   12.3951    0.0000 C   0  0  0  0  0  0  0  0  0  0  0  0
    8.3348   13.1731    0.0000 C   0  0  2  0  0  0  0  0  0  0  0  0
    8.1584   10.3775    0.0000 C   0  0  0  0  0  0  0  0  0  0  0  0
    8.4242   14.5725    0.0000 C   0  0  0  0  0  0  0  0  0  0  0  0
    7.2499   15.3543    0.0000 C   0  0  0  0  0  0  0  0  0  0  0  0
    5.9844   14.7275    0.0000 C   0  0  2  0  0  0  0  0  0  0  0  0
    5.8943   13.3173    0.0000 C   0  0  1  0  0  0  0  0  0  0  0  0
    7.0710   12.5339    0.0000 C   0  0  0  0  0  0  0  0  0  0  0  0
    4.6494   12.6959    0.0000 O   0  0  0  0  0  0  0  0  0  0  0  0
    4.8263   15.4939    0.0000 O   0  0  0  0  0  0  0  0  0  0  0  0
    3.5635   14.8735    0.0000 C   0  0  0  0  0  0  0  0  0  0  0  0
    2.4057   15.6444    0.0000 C   0  0  0  0  0  0  0  0  0  0  0  0
    4.5579   11.2937    0.0000 C   0  0  0  0  0  0  0  0  0  0  0  0
    3.4777   13.4659    0.0000 O   0  0  0  0  0  0  0  0  0  0  0  0
    1.1428   15.0190    0.0000 C   0  0  0  0  0  0  0  0  0  0  0  0
    3.3624   16.6522    0.0000 C   0  0  0  0  0  0  0  0  0  0  0  0
    1.5505   16.7486    0.0000 C   0  0  0  0  0  0  0  0  0  0  0  0
    2.9667   17.9926    0.0000 O   0  0  0  0  0  0  0  0  0  0  0  0
    0.0000   15.7764    0.0000 O   0  0  0  0  0  0  0  0  0  0  0  0
   11.8344   10.8450    0.0000 C   0  0  0  0  0  0  0  0  0  0  0  0
   12.9997   10.0691    0.0000 C   0  0  0  0  0  0  0  0  0  0  0  0
   14.2543   10.6905    0.0000 C   0  0  1  0  0  0  0  0  0  0  0  0
   12.9125    8.6697    0.0000 O   0  0  0  0  0  0  0  0  0  0  0  0
   15.4197    9.9146    0.0000 C   0  0  0  0  0  0  0  0  0  0  0  0
   10.5827    8.8169    0.0000 O   0  0  0  0  0  0  0  0  0  0  0  0
    9.3673    8.1188    0.0000 C   0  0  0  0  0  0  0  0  0  0  0  0
    8.1584    8.8188    0.0000 C   0  0  1  0  0  0  0  0  0  0  0  0
    6.9383   10.9261    0.0000 C   0  0  0  0  0  0  0  0  0  0  0  0
    5.7216   10.2237    0.0000 C   0  0  0  0  0  0  0  0  0  0  0  0
    5.7216    8.8188    0.0000 C   0  0  0  0  0  0  0  0  0  0  0  0
    6.9387    8.1145    0.0000 N   0  0  0  0  0  0  0  0  0  0  0  0
    8.0574   11.3631    0.0000 C   0  0  0  0  0  0  0  0  0  0  0  0
    9.3707    6.7145    0.0000 O   0  0  0  0  0  0  0  0  0  0  0  0
    6.9383    6.7115    0.0000 C   0  0  0  0  0  0  0  0  0  0  0  0
    8.1538    6.0072    0.0000 O   0  0  0  0  0  0  0  0  0  0  0  0
    5.7258    6.0115    0.0000 C   0  0  0  0  0  0  0  0  0  0  0  0
    4.5182    6.7096    0.0000 O   0  0  0  0  0  0  0  0  0  0  0  0
    5.7258    4.6115    0.0000 C   0  0  1  0  0  0  0  0  0  0  0  0
    4.5092    3.9090    0.0000 C   0  0  1  0  0  0  0  0  0  0  0  0
    4.5092    2.5042    0.0000 C   0  0  0  0  0  0  0  0  0  0  0  0
    5.7258    1.8017    0.0000 C   0  0  0  0  0  0  0  0  0  0  0  0
    6.9425    2.5042    0.0000 C   0  0  2  0  0  0  0  0  0  0  0  0
    6.9471    3.9047    0.0000 O   0  0  0  0  0  0  0  0  0  0  0  0
    4.5098    5.3096    0.0000 O   0  0  0  0  0  0  0  0  0  0  0  0
    3.2967    4.6090    0.0000 C   0  0  0  0  0  0  0  0  0  0  0  0
    8.1549    1.8042    0.0000 C   0  0  0  0  0  0  0  0  0  0  0  0
    9.4146    2.4151    0.0000 C   0  0  1  0  0  0  0  0  0  0  0  0
   10.5735    1.6296    0.0000 C   0  0  0  0  0  0  0  0  0  0  0  0
   11.8332    2.2405    0.0000 C   0  0  0  0  0  0  0  0  0  0  0  0
   12.9921    1.4550    0.0000 C   0  0  0  0  0  0  0  0  0  0  0  0
   14.2517    2.0659    0.0000 C   0  0  0  0  0  0  0  0  0  0  0  0
   15.4106    1.2804    0.0000 C   0  0  0  0  0  0  0  0  0  0  0  0
   16.6703    1.8913    0.0000 C   0  0  0  0  0  0  0  0  0  0  0  0
   14.3435   12.0876    0.0000 C   0  0  0  0  0  0  0  0  0  0  0  0
   15.3304    8.5175    0.0000 C   0  0  0  0  0  0  0  0  0  0  0  0
   16.4958    7.7416    0.0000 C   0  0  1  0  0  0  0  0  0  0  0  0
   14.0759    7.8962    0.0000 C   0  0  0  0  0  0  0  0  0  0  0  0
   17.7532    8.3589    0.0000 O   0  0  0  0  0  0  0  0  0  0  0  0
   16.4066    6.3445    0.0000 C   0  0  2  0  0  0  0  0  0  0  0  0
   17.5720    5.5686    0.0000 C   0  0  0  0  0  0  0  0  0  0  0  0
   17.4828    4.1715    0.0000 C   0  0  1  0  0  0  0  0  0  0  0  0
   18.6481    3.3957    0.0000 C   0  0  0  0  0  0  0  0  0  0  0  0
   15.1565    5.7184    0.0000 O   0  0  0  0  0  0  0  0  0  0  0  0
   13.9867    6.4990    0.0000 C   0  0  0  0  0  0  0  0  0  0  0  0
   18.8275    6.1885    0.0000 O   0  0  0  0  0  0  0  0  0  0  0  0
   16.2282    3.5502    0.0000 C   0  0  0  0  0  0  0  0  0  0  0  0
    9.5178    3.8086    0.0000 O   0  0  0  0  0  0  0  0  0  0  0  0
    8.3565    4.5969    0.0000 C   0  0  0  0  0  0  0  0  0  0  0  0
   10.4727    0.2332    0.0000 C   0  0  0  0  0  0  0  0  0  0  0  0
   17.9394    1.2887    0.0000 C   0  0  2  0  0  0  0  0  0  0  0  0
   18.4865    0.0000    0.0000 C   0  0  0  0  0  0  0  0  0  0  0  0
  1  2  1  0  0  0  0
  2  3  1  0  0  0  0
  4  3  1  1  0  0  0
  4  6  1  0  0  0  0
  6  7  1  0  0  0  0
  7  8  1  0  0  0  0
  8  9  1  0  0  0  0
  9 10  1  0  0  0  0
 10  4  1  0  0  0  0
  9 11  1  1  0  0  0
  8 12  1  6  0  0  0
 12 13  1  0  0  0  0
 13 14  1  0  0  0  0
 11 15  1  0  0  0  0
 13 16  2  0  0  0  0
 14 17  1  0  0  0  0
 14 18  1  0  0  0  0
 14 19  1  0  0  0  0
 18 20  1  0  0  0  0
 17 21  1  0  0  0  0
  1 22  1  0  0  0  0
 22 23  1  0  0  0  0
 23 24  1  0  0  0  0
 23 25  2  0  0  0  0
 24 26  1  0  0  0  0
  1 27  1  6  0  0  0
 27 28  1  0  0  0  0
 29 28  1  1  0  0  0
 29  5  1  0  0  0  0
  5 30  1  0  0  0  0
 30 31  1  0  0  0  0
 31 32  1  0  0  0  0
 32 33  1  0  0  0  0
 33 29  1  0  0  0  0
  2 34  1  6  0  0  0
 28 35  2  0  0  0  0
 33 36  1  0  0  0  0
 36 37  2  0  0  0  0
 36 38  1  0  0  0  0
 38 39  2  0  0  0  0
 38 40  1  0  0  0  0
 40 41  1  0  0  0  0
 41 42  1  0  0  0  0
 42 43  1  0  0  0  0
 43 44  1  0  0  0  0
 44 45  1  0  0  0  0
 45 40  1  0  0  0  0
 40 46  1  1  0  0  0
 41 47  1  1  0  0  0
 44 48  1  6  0  0  0
 48 49  1  0  0  0  0
 49 50  1  0  0  0  0
 50 51  2  0  0  0  0
 51 52  1  0  0  0  0
 52 53  2  0  0  0  0
 53 54  1  0  0  0  0
 54 55  2  0  0  0  0
 24 56  1  6  0  0  0
 26 57  2  0  0  0  0
 57 58  1  0  0  0  0
 57 59  1  0  0  0  0
 58 60  1  1  0  0  0
 58 61  1  0  0  0  0
 61 62  1  0  0  0  0
 62 63  1  0  0  0  0
 63 64  1  0  0  0  0
 61 65  1  6  0  0  0
 65 66  1  0  0  0  0
 62 67  2  0  0  0  0
 63 68  1  1  0  0  0
 49 69  1  6  0  0  0
 69 70  1  0  0  0  0
 50 71  1  0  0  0  0
 55 72  1  0  0  0  0
 64 72  1  0  0  0  0
 72 73  1  6  0  0  0
M  END
>  <Mol_ID> (292)
1538

>  <Formula> (292)
C56H87NO16

>  <MolWeight> (292)
1030.28708

>  <Cat> (292)
S1044

>  <Name> (292)
Temsirolimus (CCI-779, NSC 683864)

>  <Synonyms> (292)
N/A

>  <Target> (292)
mTOR

>  <Form> (292)
Free Base

>  <CAS> (292)
162635-04-3

>  <URL> (292)
http://www.selleckchem.com/products/Temsirolimus.html

$$$$
ENMD-2076 L-(+)-Tartaric acid.cdx
csChFnd80/05071909292D

 38 40  0  0  0  0  0  0  0  0999 V2000
    3.5666   10.9845    0.0000 N   0  0  0  0  0  0  0  0  0  0  0  0
    4.8455   11.5540    0.0000 C   0  0  0  0  0  0  0  0  0  0  0  0
    4.6992   12.9463    0.0000 C   0  0  0  0  0  0  0  0  0  0  0  0
    3.3298   13.2374    0.0000 C   0  0  0  0  0  0  0  0  0  0  0  0
    2.6298   12.0249    0.0000 N   0  0  0  0  0  0  0  0  0  0  0  0
    6.0538   10.8564    0.0000 N   0  0  0  0  0  0  0  0  0  0  0  0
    6.0538    9.4613    0.0000 C   0  0  0  0  0  0  0  0  0  0  0  0
    4.8413    8.7613    0.0000 C   0  0  0  0  0  0  0  0  0  0  0  0
    4.8413    7.3613    0.0000 C   0  0  0  0  0  0  0  0  0  0  0  0
    6.0538    6.6613    0.0000 N   0  0  0  0  0  0  0  0  0  0  0  0
    7.2662    7.3613    0.0000 C   0  0  0  0  0  0  0  0  0  0  0  0
    7.2662    8.7613    0.0000 N   0  0  0  0  0  0  0  0  0  0  0  0
    2.7623   14.5119    0.0000 C   0  0  0  0  0  0  0  0  0  0  0  0
    3.6331    6.6637    0.0000 N   0  0  0  0  0  0  0  0  0  0  0  0
    2.4207    7.3637    0.0000 C   0  0  0  0  0  0  0  0  0  0  0  0
    1.2082    6.6637    0.0000 C   0  0  0  0  0  0  0  0  0  0  0  0
    1.2082    5.2637    0.0000 N   0  0  0  0  0  0  0  0  0  0  0  0
    2.4207    4.5637    0.0000 C   0  0  0  0  0  0  0  0  0  0  0  0
    3.6331    5.2637    0.0000 C   0  0  0  0  0  0  0  0  0  0  0  0
    0.0000    4.5661    0.0000 C   0  0  0  0  0  0  0  0  0  0  0  0
    8.4744    6.6637    0.0000 C   0  0  0  0  0  0  0  0  0  0  0  0
    9.6826    7.3613    0.0000 C   0  0  0  0  0  0  0  0  0  0  0  0
   10.8909    6.6637    0.0000 C   0  0  0  0  0  0  0  0  0  0  0  0
   10.8909    5.2637    0.0000 C   0  0  0  0  0  0  0  0  0  0  0  0
   12.1033    4.5637    0.0000 C   0  0  0  0  0  0  0  0  0  0  0  0
   13.3157    5.2637    0.0000 C   0  0  0  0  0  0  0  0  0  0  0  0
   13.3157    6.6637    0.0000 C   0  0  0  0  0  0  0  0  0  0  0  0
   12.1033    7.3637    0.0000 C   0  0  0  0  0  0  0  0  0  0  0  0
    4.9635    1.3951    0.0000 C   0  0  0  0  0  0  0  0  0  0  0  0
    6.1760    2.0951    0.0000 C   0  0  1  0  0  0  0  0  0  0  0  0
    7.3842    1.3976    0.0000 C   0  0  2  0  0  0  0  0  0  0  0  0
    6.1760    3.4903    0.0000 O   0  0  0  0  0  0  0  0  0  0  0  0
    3.7553    2.0927    0.0000 O   0  0  0  0  0  0  0  0  0  0  0  0
    4.9635    0.0000    0.0000 O   0  0  0  0  0  0  0  0  0  0  0  0
    8.5924    2.0951    0.0000 C   0  0  0  0  0  0  0  0  0  0  0  0
    9.8006    1.3976    0.0000 O   0  0  0  0  0  0  0  0  0  0  0  0
    8.5924    3.4903    0.0000 O   0  0  0  0  0  0  0  0  0  0  0  0
    7.3842    0.0024    0.0000 O   0  0  0  0  0  0  0  0  0  0  0  0
  1  2  2  0  0  0  0
  2  3  1  0  0  0  0
  3  4  2  0  0  0  0
  4  5  1  0  0  0  0
  5  1  1  0  0  0  0
  2  6  1  0  0  0  0
  6  7  1  0  0  0  0
  7  8  2  0  0  0  0
  8  9  1  0  0  0  0
  9 10  2  0  0  0  0
 10 11  1  0  0  0  0
 11 12  2  0  0  0  0
 12  7  1  0  0  0  0
  4 13  1  0  0  0  0
  9 14  1  0  0  0  0
 14 15  1  0  0  0  0
 15 16  1  0  0  0  0
 16 17  1  0  0  0  0
 17 18  1  0  0  0  0
 18 19  1  0  0  0  0
 19 14  1  0  0  0  0
 17 20  1  0  0  0  0
 11 21  1  0  0  0  0
 21 22  2  0  0  0  0
 22 23  1  0  0  0  0
 23 24  2  0  0  0  0
 24 25  1  0  0  0  0
 25 26  2  0  0  0  0
 26 27  1  0  0  0  0
 27 28  2  0  0  0  0
 28 23  1  0  0  0  0
 29 30  1  0  0  0  0
 30 31  1  0  0  0  0
 30 32  1  6  0  0  0
 29 33  1  0  0  0  0
 29 34  2  0  0  0  0
 31 35  1  0  0  0  0
 35 36  1  0  0  0  0
 35 37  2  0  0  0  0
 31 38  1  6  0  0  0
M  END
>  <Mol_ID> (293)
1543

>  <Formula> (293)
C25H31N7O6

>  <MolWeight> (293)
525.55694

>  <Cat> (293)
S2018

>  <Name> (293)
ENMD-2076 L-(+)-Tartaric acid

>  <Synonyms> (293)
N/A

>  <Target> (293)
FLT3

>  <Form> (293)
Free Base

>  <CAS> (293)
1291074-87-7

>  <URL> (293)
http://www.selleckchem.com/products/enmd-2076-l-tartaric-acid.html

$$$$
PF-2341066.cdx
csChFnd80/05071909292D

 30 33  0  0  0  0  0  0  0  0999 V2000
    3.0957    4.9430    0.0000 C   0  0  0  0  0  0  0  0  0  0  0  0
    3.0957    4.1180    0.0000 C   0  0  0  0  0  0  0  0  0  0  0  0
    3.8102    3.7054    0.0000 C   0  0  0  0  0  0  0  0  0  0  0  0
    4.5247    4.1180    0.0000 C   0  0  0  0  0  0  0  0  0  0  0  0
    4.5247    4.9430    0.0000 N   0  0  0  0  0  0  0  0  0  0  0  0
    3.8102    5.3555    0.0000 C   0  0  0  0  0  0  0  0  0  0  0  0
    5.2367    3.7069    0.0000 N   0  0  0  0  0  0  0  0  0  0  0  0
    3.8102    2.8833    0.0000 O   0  0  0  0  0  0  0  0  0  0  0  0
    3.0982    2.4722    0.0000 C   0  0  1  0  0  0  0  0  0  0  0  0
    3.0982    1.6500    0.0000 C   0  0  0  0  0  0  0  0  0  0  0  0
    2.3837    1.2375    0.0000 C   0  0  0  0  0  0  0  0  0  0  0  0
    2.3837    0.4125    0.0000 C   0  0  0  0  0  0  0  0  0  0  0  0
    3.0982    0.0000    0.0000 C   0  0  0  0  0  0  0  0  0  0  0  0
    3.8126    0.4125    0.0000 C   0  0  0  0  0  0  0  0  0  0  0  0
    3.8126    1.2375    0.0000 C   0  0  0  0  0  0  0  0  0  0  0  0
    1.6717    1.6486    0.0000 Cl  0  0  0  0  0  0  0  0  0  0  0  0
    4.5247    1.6486    0.0000 Cl  0  0  0  0  0  0  0  0  0  0  0  0
    4.5247    0.0014    0.0000 F   0  0  0  0  0  0  0  0  0  0  0  0
    2.3837    5.3540    0.0000 C   0  0  0  0  0  0  0  0  0  0  0  0
    2.2974    6.1746    0.0000 C   0  0  0  0  0  0  0  0  0  0  0  0
    1.4905    6.3460    0.0000 N   0  0  0  0  0  0  0  0  0  0  0  0
    1.0779    5.6316    0.0000 N   0  0  0  0  0  0  0  0  0  0  0  0
    1.6300    5.0185    0.0000 C   0  0  0  0  0  0  0  0  0  0  0  0
    1.1561    7.0972    0.0000 C   0  0  0  0  0  0  0  0  0  0  0  0
    1.6410    7.7646    0.0000 C   0  0  0  0  0  0  0  0  0  0  0  0
    1.3054    8.5182    0.0000 C   0  0  0  0  0  0  0  0  0  0  0  0
    0.4849    8.6045    0.0000 N   0  0  0  0  0  0  0  0  0  0  0  0
    0.0000    7.9371    0.0000 C   0  0  0  0  0  0  0  0  0  0  0  0
    0.3355    7.1834    0.0000 C   0  0  0  0  0  0  0  0  0  0  0  0
    2.3862    2.8833    0.0000 C   0  0  0  0  0  0  0  0  0  0  0  0
  1  2  2  0  0  0  0
  2  3  1  0  0  0  0
  3  4  2  0  0  0  0
  4  5  1  0  0  0  0
  5  6  2  0  0  0  0
  6  1  1  0  0  0  0
  4  7  1  0  0  0  0
  3  8  1  0  0  0  0
  8  9  1  0  0  0  0
  9 10  1  0  0  0  0
 10 11  2  0  0  0  0
 11 12  1  0  0  0  0
 12 13  2  0  0  0  0
 13 14  1  0  0  0  0
 14 15  2  0  0  0  0
 15 10  1  0  0  0  0
 11 16  1  0  0  0  0
 15 17  1  0  0  0  0
 14 18  1  0  0  0  0
 19 20  2  0  0  0  0
 20 21  1  0  0  0  0
 21 22  1  0  0  0  0
 22 23  2  0  0  0  0
 23 19  1  0  0  0  0
 21 24  1  0  0  0  0
 24 25  1  0  0  0  0
 25 26  1  0  0  0  0
 26 27  1  0  0  0  0
 27 28  1  0  0  0  0
 28 29  1  0  0  0  0
 29 24  1  0  0  0  0
  9 30  1  1  0  0  0
 19  1  1  0  0  0  0
M  END
>  <Mol_ID> (294)
1550

>  <Formula> (294)
C21H22Cl2FN5O

>  <MolWeight> (294)
450.3366832

>  <Cat> (294)
S1068

>  <Name> (294)
Crizotinib (PF-02341066)

>  <Synonyms> (294)
N/A 

>  <Target> (294)
c-Met, ALK

>  <Form> (294)
Free Base

>  <CAS> (294)
877399-52-5, 877399-53-6 (acetate)

>  <URL> (294)
http://www.selleckchem.com/products/PF-2341066.html

$$$$
BMS-599626 (AC480).cdx
csChFnd80/05071909292D

 39 44  0  0  0  0  0  0  0  0999 V2000
   10.5349    4.3289    0.0000 C   0  0  0  0  0  0  0  0  0  0  0  0
   10.5349    2.9289    0.0000 N   0  0  0  0  0  0  0  0  0  0  0  0
   11.7474    2.2289    0.0000 N   0  0  0  0  0  0  0  0  0  0  0  0
   12.9598    2.9289    0.0000 C   0  0  0  0  0  0  0  0  0  0  0  0
   12.9598    4.3289    0.0000 N   0  0  0  0  0  0  0  0  0  0  0  0
   11.7474    5.0289    0.0000 C   0  0  0  0  0  0  0  0  0  0  0  0
    9.2035    4.7615    0.0000 C   0  0  0  0  0  0  0  0  0  0  0  0
    8.3806    3.6289    0.0000 C   0  0  0  0  0  0  0  0  0  0  0  0
    9.2035    2.4963    0.0000 C   0  0  0  0  0  0  0  0  0  0  0  0
    8.7723    6.0884    0.0000 C   0  0  0  0  0  0  0  0  0  0  0  0
   11.7474    6.4240    0.0000 N   0  0  0  0  0  0  0  0  0  0  0  0
   12.9556    7.1216    0.0000 C   0  0  0  0  0  0  0  0  0  0  0  0
   14.1680    6.4216    0.0000 C   0  0  0  0  0  0  0  0  0  0  0  0
   15.3805    7.1216    0.0000 C   0  0  0  0  0  0  0  0  0  0  0  0
   15.3805    8.5216    0.0000 C   0  0  0  0  0  0  0  0  0  0  0  0
   14.1680    9.2216    0.0000 C   0  0  0  0  0  0  0  0  0  0  0  0
   12.9556    8.5216    0.0000 C   0  0  0  0  0  0  0  0  0  0  0  0
   16.7120    6.6890    0.0000 C   0  0  0  0  0  0  0  0  0  0  0  0
   17.5349    7.8216    0.0000 N   0  0  0  0  0  0  0  0  0  0  0  0
   16.7120    8.9542    0.0000 N   0  0  0  0  0  0  0  0  0  0  0  0
   17.1431   10.2811    0.0000 C   0  0  0  0  0  0  0  0  0  0  0  0
   18.5077   10.5711    0.0000 C   0  0  0  0  0  0  0  0  0  0  0  0
   19.4445    9.5307    0.0000 C   0  0  0  0  0  0  0  0  0  0  0  0
   20.8139    9.8218    0.0000 C   0  0  0  0  0  0  0  0  0  0  0  0
   21.2465   11.1533    0.0000 C   0  0  0  0  0  0  0  0  0  0  0  0
   20.3098   12.1937    0.0000 C   0  0  0  0  0  0  0  0  0  0  0  0
   18.9404   11.9026    0.0000 C   0  0  0  0  0  0  0  0  0  0  0  0
   20.7409   13.5206    0.0000 F   0  0  0  0  0  0  0  0  0  0  0  0
    6.9854    3.6289    0.0000 N   0  0  0  0  0  0  0  0  0  0  0  0
    6.2879    2.4207    0.0000 C   0  0  0  0  0  0  0  0  0  0  0  0
    4.8927    2.4207    0.0000 O   0  0  0  0  0  0  0  0  0  0  0  0
    6.9854    1.2124    0.0000 O   0  0  0  0  0  0  0  0  0  0  0  0
    4.1951    1.2124    0.0000 C   0  0  0  0  0  0  0  0  0  0  0  0
    2.8000    1.2124    0.0000 C   0  0  2  0  0  0  0  0  0  0  0  0
    2.1000    2.4249    0.0000 C   0  0  0  0  0  0  0  0  0  0  0  0
    0.7000    2.4249    0.0000 O   0  0  0  0  0  0  0  0  0  0  0  0
    0.0000    1.2124    0.0000 C   0  0  0  0  0  0  0  0  0  0  0  0
    0.7000    0.0000    0.0000 C   0  0  0  0  0  0  0  0  0  0  0  0
    2.1000    0.0000    0.0000 N   0  0  0  0  0  0  0  0  0  0  0  0
  1  2  1  0  0  0  0
  2  3  1  0  0  0  0
  3  4  2  0  0  0  0
  4  5  1  0  0  0  0
  5  6  2  0  0  0  0
  6  1  1  0  0  0  0
  1  7  2  0  0  0  0
  7  8  1  0  0  0  0
  8  9  2  0  0  0  0
  9  2  1  0  0  0  0
  7 10  1  0  0  0  0
  6 11  1  0  0  0  0
 11 12  1  0  0  0  0
 12 13  2  0  0  0  0
 13 14  1  0  0  0  0
 14 15  2  0  0  0  0
 15 16  1  0  0  0  0
 16 17  2  0  0  0  0
 17 12  1  0  0  0  0
 14 18  1  0  0  0  0
 18 19  2  0  0  0  0
 19 20  1  0  0  0  0
 20 15  1  0  0  0  0
 20 21  1  0  0  0  0
 21 22  1  0  0  0  0
 22 23  2  0  0  0  0
 23 24  1  0  0  0  0
 24 25  2  0  0  0  0
 25 26  1  0  0  0  0
 26 27  2  0  0  0  0
 27 22  1  0  0  0  0
 26 28  1  0  0  0  0
  8 29  1  0  0  0  0
 29 30  1  0  0  0  0
 30 31  1  0  0  0  0
 30 32  2  0  0  0  0
 31 33  1  0  0  0  0
 34 33  1  1  0  0  0
 34 35  1  0  0  0  0
 35 36  1  0  0  0  0
 36 37  1  0  0  0  0
 37 38  1  0  0  0  0
 38 39  1  0  0  0  0
 39 34  1  0  0  0  0
M  END
>  <Mol_ID> (295)
1560

>  <Formula> (295)
C27H27FN8O3

>  <MolWeight> (295)
530.5534832

>  <Cat> (295)
S1056

>  <Name> (295)
AC480 (BMS-599626)

>  <Synonyms> (295)
N/A

>  <Target> (295)
HER2

>  <Form> (295)
Free Base

>  <CAS> (295)
714971-09-2

>  <URL> (295)
http://www.selleckchem.com/products/BMS-599626.html

$$$$
S1263.cdx
csChFnd80/05071909292D

 32 35  0  0  0  0  0  0  0  0999 V2000
    2.4234    5.8834    0.0000 C   0  0  0  0  0  0  0  0  0  0  0  0
    2.4234    4.4834    0.0000 C   0  0  0  0  0  0  0  0  0  0  0  0
    3.6359    3.7834    0.0000 C   0  0  0  0  0  0  0  0  0  0  0  0
    4.8483    4.4834    0.0000 C   0  0  0  0  0  0  0  0  0  0  0  0
    4.8483    5.8834    0.0000 N   0  0  0  0  0  0  0  0  0  0  0  0
    3.6359    6.5834    0.0000 C   0  0  0  0  0  0  0  0  0  0  0  0
    1.2110    6.5834    0.0000 C   0  0  0  0  0  0  0  0  0  0  0  0
    6.0607    3.7834    0.0000 N   0  0  0  0  0  0  0  0  0  0  0  0
    7.2732    4.4834    0.0000 C   0  0  0  0  0  0  0  0  0  0  0  0
    8.4856    3.7834    0.0000 C   0  0  0  0  0  0  0  0  0  0  0  0
    9.6981    4.4834    0.0000 N   0  0  0  0  0  0  0  0  0  0  0  0
   10.9105    3.7834    0.0000 C   0  0  0  0  0  0  0  0  0  0  0  0
   10.9105    2.3834    0.0000 N   0  0  0  0  0  0  0  0  0  0  0  0
   12.1229    1.6834    0.0000 C   0  0  0  0  0  0  0  0  0  0  0  0
   13.3354    2.3834    0.0000 C   0  0  0  0  0  0  0  0  0  0  0  0
   13.3354    3.7834    0.0000 C   0  0  0  0  0  0  0  0  0  0  0  0
   12.1229    4.4834    0.0000 N   0  0  0  0  0  0  0  0  0  0  0  0
   14.5478    4.4834    0.0000 C   0  0  0  0  0  0  0  0  0  0  0  0
   14.5478    1.6834    0.0000 C   0  0  0  0  0  0  0  0  0  0  0  0
   15.7602    3.7834    0.0000 C   0  0  0  0  0  0  0  0  0  0  0  0
   16.9727    4.4834    0.0000 C   0  0  0  0  0  0  0  0  0  0  0  0
   16.9727    5.8834    0.0000 C   0  0  0  0  0  0  0  0  0  0  0  0
   15.7602    6.5834    0.0000 C   0  0  0  0  0  0  0  0  0  0  0  0
   14.5478    5.8834    0.0000 C   0  0  0  0  0  0  0  0  0  0  0  0
   13.3354    6.5834    0.0000 Cl  0  0  0  0  0  0  0  0  0  0  0  0
   18.1851    6.5834    0.0000 Cl  0  0  0  0  0  0  0  0  0  0  0  0
   14.6941    0.2911    0.0000 N   0  0  0  0  0  0  0  0  0  0  0  0
   16.0635    0.0000    0.0000 C   0  0  0  0  0  0  0  0  0  0  0  0
   16.7635    1.2124    0.0000 C   0  0  0  0  0  0  0  0  0  0  0  0
   15.8268    2.2528    0.0000 N   0  0  0  0  0  0  0  0  0  0  0  0
   18.1559    1.3588    0.0000 C   0  0  0  0  0  0  0  0  0  0  0  0
    0.0000    7.2834    0.0000 N   0  0  0  0  0  0  0  0  0  0  0  0
  1  2  2  0  0  0  0
  2  3  1  0  0  0  0
  3  4  2  0  0  0  0
  4  5  1  0  0  0  0
  5  6  2  0  0  0  0
  6  1  1  0  0  0  0
  1  7  1  0  0  0  0
  4  8  1  0  0  0  0
  8  9  1  0  0  0  0
  9 10  1  0  0  0  0
 10 11  1  0  0  0  0
 11 12  1  0  0  0  0
 12 13  2  0  0  0  0
 13 14  1  0  0  0  0
 14 15  2  0  0  0  0
 15 16  1  0  0  0  0
 16 17  2  0  0  0  0
 17 12  1  0  0  0  0
 16 18  1  0  0  0  0
 15 19  1  0  0  0  0
 18 20  2  0  0  0  0
 20 21  1  0  0  0  0
 21 22  2  0  0  0  0
 22 23  1  0  0  0  0
 23 24  2  0  0  0  0
 24 18  1  0  0  0  0
 24 25  1  0  0  0  0
 22 26  1  0  0  0  0
 19 27  1  0  0  0  0
 27 28  1  0  0  0  0
 28 29  2  0  0  0  0
 29 30  1  0  0  0  0
 30 19  2  0  0  0  0
 29 31  1  0  0  0  0
  7 32  3  0  0  0  0
M  END
>  <Mol_ID> (296)
1562

>  <Formula> (296)
C22H18Cl2N8

>  <MolWeight> (296)
465.33792

>  <Cat> (296)
S1263

>  <Name> (296)
CHIR-99021 (CT99021)

>  <Synonyms> (296)
N/A

>  <Target> (296)
GSK-3

>  <Form> (296)
Free Base

>  <CAS> (296)
252917-06-9

>  <URL> (296)
http://www.selleckchem.com/products/CHIR-99021.html

$$$$
Flavopiridol hydrochloride.cdx
csChFnd80/05071909292D

 29 32  0  0  0  0  0  0  0  0999 V2000
    1.2082    7.6903    0.0000 C   0  0  0  0  0  0  0  0  0  0  0  0
    1.2082    6.2903    0.0000 C   0  0  0  0  0  0  0  0  0  0  0  0
    2.4207    5.5903    0.0000 C   0  0  0  0  0  0  0  0  0  0  0  0
    3.6331    6.2903    0.0000 C   0  0  0  0  0  0  0  0  0  0  0  0
    3.6331    7.6903    0.0000 C   0  0  0  0  0  0  0  0  0  0  0  0
    2.4207    8.3903    0.0000 C   0  0  0  0  0  0  0  0  0  0  0  0
    4.8455    5.5903    0.0000 O   0  0  0  0  0  0  0  0  0  0  0  0
    6.0580    6.2903    0.0000 C   0  0  0  0  0  0  0  0  0  0  0  0
    6.0580    7.6903    0.0000 C   0  0  0  0  0  0  0  0  0  0  0  0
    4.8455    8.3903    0.0000 C   0  0  0  0  0  0  0  0  0  0  0  0
    4.8455    9.7854    0.0000 O   0  0  0  0  0  0  0  0  0  0  0  0
    2.4207    9.7854    0.0000 O   0  0  0  0  0  0  0  0  0  0  0  0
    0.0000    5.5927    0.0000 O   0  0  0  0  0  0  0  0  0  0  0  0
    2.4207    4.1951    0.0000 C   0  0  2  0  0  0  0  0  0  0  0  0
    1.2082    3.4951    0.0000 C   0  0  1  0  0  0  0  0  0  0  0  0
    1.2082    2.0951    0.0000 C   0  0  0  0  0  0  0  0  0  0  0  0
    2.4207    1.3951    0.0000 N   0  0  0  0  0  0  0  0  0  0  0  0
    3.6331    2.0951    0.0000 C   0  0  0  0  0  0  0  0  0  0  0  0
    3.6331    3.4951    0.0000 C   0  0  0  0  0  0  0  0  0  0  0  0
    3.6289    4.8927    0.0000 H   0  0  0  0  0  0  0  0  0  0  0  0
    0.0000    4.1927    0.0000 O   0  0  0  0  0  0  0  0  0  0  0  0
    2.4207    0.0000    0.0000 C   0  0  0  0  0  0  0  0  0  0  0  0
    7.2662    5.5927    0.0000 C   0  0  0  0  0  0  0  0  0  0  0  0
    7.2662    4.1927    0.0000 C   0  0  0  0  0  0  0  0  0  0  0  0
    8.4786    3.4927    0.0000 C   0  0  0  0  0  0  0  0  0  0  0  0
    9.6911    4.1927    0.0000 C   0  0  0  0  0  0  0  0  0  0  0  0
    9.6911    5.5927    0.0000 C   0  0  0  0  0  0  0  0  0  0  0  0
    8.4786    6.2927    0.0000 C   0  0  0  0  0  0  0  0  0  0  0  0
    6.0580    3.4951    0.0000 Cl  0  0  0  0  0  0  0  0  0  0  0  0
  1  2  2  0  0  0  0
  2  3  1  0  0  0  0
  3  4  2  0  0  0  0
  4  5  1  0  0  0  0
  5  6  2  0  0  0  0
  6  1  1  0  0  0  0
  4  7  1  0  0  0  0
  7  8  1  0  0  0  0
  8  9  2  0  0  0  0
  9 10  1  0  0  0  0
 10  5  1  0  0  0  0
 10 11  2  0  0  0  0
  6 12  1  0  0  0  0
  2 13  1  0  0  0  0
  3 14  1  0  0  0  0
 14 15  1  0  0  0  0
 15 16  1  0  0  0  0
 16 17  1  0  0  0  0
 17 18  1  0  0  0  0
 18 19  1  0  0  0  0
 19 14  1  0  0  0  0
 14 20  1  6  0  0  0
 15 21  1  1  0  0  0
 17 22  1  0  0  0  0
  8 23  1  0  0  0  0
 23 24  2  0  0  0  0
 24 25  1  0  0  0  0
 25 26  2  0  0  0  0
 26 27  1  0  0  0  0
 27 28  2  0  0  0  0
 28 23  1  0  0  0  0
 24 29  1  0  0  0  0
M  END
>  <Mol_ID> (297)
1563

>  <Formula> (297)
C21H20ClNO5

>  <MolWeight> (297)
401.8402

>  <Cat> (297)
S1230

>  <Name> (297)
Flavopiridol (Alvocidib)

>  <Synonyms> (297)
NSC 649890 HCl,HMR-1275

>  <Target> (297)
CDK

>  <Form> (297)
Free Base

>  <CAS> (297)
146426-40-6

>  <URL> (297)
http://www.selleckchem.com/products/Flavopiridol.html

$$$$
S4736 Trapidil.cdx
csChFnd80/05071909292D

 15 16  0  0  0  0  0  0  0  0999 V2000
    1.2124    2.1000    0.0000 C   0  0  0  0  0  0  0  0  0  0  0  0
    1.2124    0.7000    0.0000 C   0  0  0  0  0  0  0  0  0  0  0  0
    2.4249    0.0000    0.0000 N   0  0  0  0  0  0  0  0  0  0  0  0
    3.6373    0.7000    0.0000 C   0  0  0  0  0  0  0  0  0  0  0  0
    3.6373    2.1000    0.0000 N   0  0  0  0  0  0  0  0  0  0  0  0
    2.4249    2.8000    0.0000 C   0  0  0  0  0  0  0  0  0  0  0  0
    4.9688    0.2674    0.0000 N   0  0  0  0  0  0  0  0  0  0  0  0
    5.7917    1.4000    0.0000 C   0  0  0  0  0  0  0  0  0  0  0  0
    4.9688    2.5326    0.0000 N   0  0  0  0  0  0  0  0  0  0  0  0
    2.4249    4.2000    0.0000 N   0  0  0  0  0  0  0  0  0  0  0  0
    1.2124    4.9000    0.0000 C   0  0  0  0  0  0  0  0  0  0  0  0
    3.6373    4.9000    0.0000 C   0  0  0  0  0  0  0  0  0  0  0  0
    4.8497    4.2000    0.0000 C   0  0  0  0  0  0  0  0  0  0  0  0
    0.0000    4.2000    0.0000 C   0  0  0  0  0  0  0  0  0  0  0  0
    0.0000    0.0000    0.0000 C   0  0  0  0  0  0  0  0  0  0  0  0
  2  3  2  0  0  0  0
  4  5  1  0  0  0  0
  6  1  2  0  0  0  0
  4  7  2  0  0  0  0
  7  8  1  0  0  0  0
  8  9  2  0  0  0  0
  9  5  1  0  0  0  0
  6 10  1  0  0  0  0
 10 11  1  0  0  0  0
 10 12  1  0  0  0  0
 12 13  1  0  0  0  0
 11 14  1  0  0  0  0
  2 15  1  0  0  0  0
  4  3  1  0  0  0  0
  1  2  1  0  0  0  0
  6  5  1  0  0  0  0
M  END
>  <Mol_ID> (298)
1726

>  <Formula> (298)
C10H15N5

>  <MolWeight> (298)
205.2596

>  <Cat> (298)
S4736

>  <Name> (298)
Trapidil

>  <Synonyms> (298)
Rocornal, Trapymin, Avantrin, Trapymine

>  <Target> (298)
PDGFR

>  <Form> (298)
Free Base

>  <CAS> (298)
15421-84-8

>  <URL> (298)
http://www.selleckchem.com/products/trapidil.html

$$$$
S4743 Wogonin.cdx
csChFnd80/05071909292D

 21 23  0  0  0  0  0  0  0  0999 V2000
    3.6326    4.1951    0.0000 C   0  0  0  0  0  0  0  0  0  0  0  0
    3.6326    2.7947    0.0000 C   0  0  0  0  0  0  0  0  0  0  0  0
    4.8438    4.8944    0.0000 C   0  0  0  0  0  0  0  0  0  0  0  0
    2.4175    4.8966    0.0000 C   0  0  0  0  0  0  0  0  0  0  0  0
    2.4290    2.0997    0.0000 C   0  0  0  0  0  0  0  0  0  0  0  0
    4.8454    2.0945    0.0000 O   0  0  0  0  0  0  0  0  0  0  0  0
    6.0572    4.1938    0.0000 C   0  0  0  0  0  0  0  0  0  0  0  0
    4.8438    6.2916    0.0000 O   0  0  0  0  0  0  0  0  0  0  0  0
    1.2051    4.1966    0.0000 C   0  0  0  0  0  0  0  0  0  0  0  0
    2.4175    6.2915    0.0000 O   0  0  0  0  0  0  0  0  0  0  0  0
    1.2204    2.7975    0.0000 C   0  0  0  0  0  0  0  0  0  0  0  0
    2.4290    0.6981    0.0000 O   0  0  0  0  0  0  0  0  0  0  0  0
    6.0602    2.7958    0.0000 C   0  0  0  0  0  0  0  0  0  0  0  0
    0.0000    2.0928    0.0000 O   0  0  0  0  0  0  0  0  0  0  0  0
    1.2298    0.0058    0.0000 C   0  0  0  0  0  0  0  0  0  0  0  0
    7.2682    2.0984    0.0000 C   0  0  0  0  0  0  0  0  0  0  0  0
    7.2682    0.7012    0.0000 C   0  0  0  0  0  0  0  0  0  0  0  0
    8.4841    2.8004    0.0000 C   0  0  0  0  0  0  0  0  0  0  0  0
    8.4827    0.0000    0.0000 C   0  0  0  0  0  0  0  0  0  0  0  0
    9.6957    2.1009    0.0000 C   0  0  0  0  0  0  0  0  0  0  0  0
    9.6965    0.7008    0.0000 C   0  0  0  0  0  0  0  0  0  0  0  0
  1  2  2  0  0  0  0
  1  3  1  0  0  0  0
  1  4  1  0  0  0  0
  2  5  1  0  0  0  0
  2  6  1  0  0  0  0
  3  7  1  0  0  0  0
  3  8  2  0  0  0  0
  4  9  2  0  0  0  0
  4 10  1  0  0  0  0
  5 11  2  0  0  0  0
  5 12  1  0  0  0  0
  6 13  1  0  0  0  0
  7 13  2  0  0  0  0
  9 11  1  0  0  0  0
 11 14  1  0  0  0  0
 12 15  1  0  0  0  0
 13 16  1  0  0  0  0
 16 17  1  0  0  0  0
 16 18  2  0  0  0  0
 17 19  2  0  0  0  0
 18 20  1  0  0  0  0
 19 21  1  0  0  0  0
 20 21  2  0  0  0  0
M  END
>  <Mol_ID> (299)
1734

>  <Formula> (299)
C16H12O5

>  <MolWeight> (299)
284.26348

>  <Cat> (299)
S4743

>  <Name> (299)
Wogonin

>  <Synonyms> (299)
Vogonin

>  <Target> (299)
CDK

>  <Form> (299)
Free Base

>  <CAS> (299)
632-85-9

>  <URL> (299)
http://www.selleckchem.com/products/wogonin.html

$$$$
NS-187.cdx
csChFnd80/05071909292D

 42 46  0  0  0  0  0  0  0  0999 V2000
    3.6331    4.1878    0.0000 C   0  0  0  0  0  0  0  0  0  0  0  0
    4.8455    3.4878    0.0000 C   0  0  0  0  0  0  0  0  0  0  0  0
    6.0580    4.1878    0.0000 N   0  0  0  0  0  0  0  0  0  0  0  0
    6.0580    5.5879    0.0000 C   0  0  0  0  0  0  0  0  0  0  0  0
    4.8455    6.2879    0.0000 N   0  0  0  0  0  0  0  0  0  0  0  0
    3.6331    5.5879    0.0000 C   0  0  0  0  0  0  0  0  0  0  0  0
    7.2662    6.2854    0.0000 N   0  0  0  0  0  0  0  0  0  0  0  0
    8.4744    5.5879    0.0000 C   0  0  0  0  0  0  0  0  0  0  0  0
    8.4744    4.1878    0.0000 C   0  0  0  0  0  0  0  0  0  0  0  0
    9.6869    3.4878    0.0000 C   0  0  0  0  0  0  0  0  0  0  0  0
   10.8993    4.1878    0.0000 C   0  0  0  0  0  0  0  0  0  0  0  0
   10.8993    5.5879    0.0000 C   0  0  0  0  0  0  0  0  0  0  0  0
    9.6869    6.2879    0.0000 C   0  0  0  0  0  0  0  0  0  0  0  0
    9.6869    7.6830    0.0000 C   0  0  0  0  0  0  0  0  0  0  0  0
    9.6869    2.0927    0.0000 N   0  0  0  0  0  0  0  0  0  0  0  0
   10.8951    1.3951    0.0000 C   0  0  0  0  0  0  0  0  0  0  0  0
   10.8951    0.0000    0.0000 O   0  0  0  0  0  0  0  0  0  0  0  0
   12.1033    2.0927    0.0000 C   0  0  0  0  0  0  0  0  0  0  0  0
   13.3157    1.3927    0.0000 C   0  0  0  0  0  0  0  0  0  0  0  0
   14.5282    2.0927    0.0000 C   0  0  0  0  0  0  0  0  0  0  0  0
   14.5282    3.4927    0.0000 C   0  0  0  0  0  0  0  0  0  0  0  0
   13.3157    4.1927    0.0000 C   0  0  0  0  0  0  0  0  0  0  0  0
   12.1033    3.4927    0.0000 C   0  0  0  0  0  0  0  0  0  0  0  0
   13.3157    5.5879    0.0000 C   0  0  0  0  0  0  0  0  0  0  0  0
   12.1075    6.2854    0.0000 F   0  0  0  0  0  0  0  0  0  0  0  0
   14.5240    6.2854    0.0000 F   0  0  0  0  0  0  0  0  0  0  0  0
   13.3157    6.9830    0.0000 F   0  0  0  0  0  0  0  0  0  0  0  0
   15.7364    4.1903    0.0000 C   0  0  0  0  0  0  0  0  0  0  0  0
   16.9446    3.4927    0.0000 N   0  0  0  0  0  0  0  0  0  0  0  0
   17.0910    2.1004    0.0000 C   0  0  0  0  0  0  0  0  0  0  0  0
   18.4604    1.8093    0.0000 C   0  0  0  0  0  0  0  0  0  0  0  0
   19.1604    3.0217    0.0000 C   0  0  1  0  0  0  0  0  0  0  0  0
   18.2236    4.0621    0.0000 C   0  0  0  0  0  0  0  0  0  0  0  0
   20.5479    3.1676    0.0000 N   0  0  0  0  0  0  0  0  0  0  0  0
   21.4179    2.0769    0.0000 C   0  0  0  0  0  0  0  0  0  0  0  0
   21.0865    4.4545    0.0000 C   0  0  0  0  0  0  0  0  0  0  0  0
    2.4249    6.2854    0.0000 C   0  0  0  0  0  0  0  0  0  0  0  0
    2.4249    7.6854    0.0000 C   0  0  0  0  0  0  0  0  0  0  0  0
    1.2124    8.3854    0.0000 N   0  0  0  0  0  0  0  0  0  0  0  0
    0.0000    7.6854    0.0000 C   0  0  0  0  0  0  0  0  0  0  0  0
    0.0000    6.2854    0.0000 N   0  0  0  0  0  0  0  0  0  0  0  0
    1.2124    5.5854    0.0000 C   0  0  0  0  0  0  0  0  0  0  0  0
  1  2  2  0  0  0  0
  2  3  1  0  0  0  0
  3  4  2  0  0  0  0
  4  5  1  0  0  0  0
  5  6  2  0  0  0  0
  6  1  1  0  0  0  0
  4  7  1  0  0  0  0
  7  8  1  0  0  0  0
  8  9  2  0  0  0  0
  9 10  1  0  0  0  0
 10 11  2  0  0  0  0
 11 12  1  0  0  0  0
 12 13  2  0  0  0  0
 13  8  1  0  0  0  0
 13 14  1  0  0  0  0
 10 15  1  0  0  0  0
 15 16  1  0  0  0  0
 16 17  2  0  0  0  0
 16 18  1  0  0  0  0
 18 19  2  0  0  0  0
 19 20  1  0  0  0  0
 20 21  2  0  0  0  0
 21 22  1  0  0  0  0
 22 23  2  0  0  0  0
 23 18  1  0  0  0  0
 22 24  1  0  0  0  0
 24 25  1  0  0  0  0
 24 26  1  0  0  0  0
 24 27  1  0  0  0  0
 21 28  1  0  0  0  0
 28 29  1  0  0  0  0
 29 30  1  0  0  0  0
 30 31  1  0  0  0  0
 31 32  1  0  0  0  0
 32 33  1  0  0  0  0
 33 29  1  0  0  0  0
 32 34  1  1  0  0  0
 34 35  1  0  0  0  0
 34 36  1  0  0  0  0
  6 37  1  0  0  0  0
 37 38  2  0  0  0  0
 38 39  1  0  0  0  0
 39 40  2  0  0  0  0
 40 41  1  0  0  0  0
 41 42  2  0  0  0  0
 42 37  1  0  0  0  0
M  END
>  <Mol_ID> (300)
1746

>  <Formula> (300)
C30H31F3N8O

>  <MolWeight> (300)
576.6153496

>  <Cat> (300)
S1369

>  <Name> (300)
Bafetinib (INNO-406)

>  <Synonyms> (300)
NS-187

>  <Target> (300)
Abl,Lyn

>  <Form> (300)
Free Base

>  <CAS> (300)
859212-16-1

>  <URL> (300)
http://www.selleckchem.com/products/Bafetinib.html

$$$$
S3609 Berbamine (dihydrochloride).cdx
csChFnd80/05071909292D

 47 51  0  0  0  0  0  0  0  0999 V2000
    9.7222   26.6837    0.0000 Cl  0  0  0  0  0  0  0  0  0  0  0  0
    0.0000   26.6837    0.0000 Cl  0  0  0  0  0  0  0  0  0  0  0  0
   19.6373    9.4641    0.0000 C   0  0  0  0  0  0  0  0  0  0  0  0
   20.8415    8.7779    0.0000 C   0  0  0  0  0  0  0  0  0  0  0  0
   19.6294   10.8718    0.0000 C   0  0  0  0  0  0  0  0  0  0  0  0
   18.4699    8.7814    0.0000 C   0  0  1  0  0  0  0  0  0  0  0  0
   22.0311    9.3531    0.0000 C   0  0  0  0  0  0  0  0  0  0  0  0
   20.8481    6.3788    0.0000 O   0  0  0  0  0  0  0  0  0  0  0  0
   20.8583   11.5905    0.0000 C   0  0  0  0  0  0  0  0  0  0  0  0
   18.4266   11.5572    0.0000 C   0  0  0  0  0  0  0  0  0  0  0  0
   18.4958    7.3583    0.0000 C   0  0  0  0  0  0  0  0  0  0  0  0
   17.2783    9.4327    0.0000 N   0  0  0  0  0  0  0  0  0  0  0  0
   22.0807   10.7696    0.0000 C   0  0  0  0  0  0  0  0  0  0  0  0
   23.2042    8.5883    0.0000 O   0  0  0  0  0  0  0  0  0  0  0  0
   22.0228    5.6099    0.0000 C   0  0  0  0  0  0  0  0  0  0  0  0
   17.2227   10.8531    0.0000 C   0  0  0  0  0  0  0  0  0  0  0  0
   17.3034    6.6610    0.0000 C   0  0  0  0  0  0  0  0  0  0  0  0
   16.0655    8.7325    0.0000 C   0  0  0  0  0  0  0  0  0  0  0  0
   23.3278   11.4065    0.0000 O   0  0  0  0  0  0  0  0  0  0  0  0
   22.0306    4.2074    0.0000 C   0  0  0  0  0  0  0  0  0  0  0  0
   23.2108    6.3047    0.0000 C   0  0  0  0  0  0  0  0  0  0  0  0
   17.5061    5.2577    0.0000 C   0  0  0  0  0  0  0  0  0  0  0  0
   16.0244    7.1850    0.0000 C   0  0  0  0  0  0  0  0  0  0  0  0
   23.2557    3.5093    0.0000 C   0  0  0  0  0  0  0  0  0  0  0  0
   24.4084    5.6222    0.0000 C   0  0  0  0  0  0  0  0  0  0  0  0
   16.3767    4.4370    0.0000 C   0  0  0  0  0  0  0  0  0  0  0  0
   14.9083    6.3438    0.0000 C   0  0  0  0  0  0  0  0  0  0  0  0
   24.4464    4.2056    0.0000 C   0  0  0  0  0  0  0  0  0  0  0  0
   23.3419    2.0782    0.0000 C   0  0  2  0  0  0  0  0  0  0  0  0
   15.0892    4.9610    0.0000 C   0  0  0  0  0  0  0  0  0  0  0  0
   25.6888    3.5876    0.0000 C   0  0  0  0  0  0  0  0  0  0  0  0
   22.3637    1.0890    0.0000 C   0  0  0  0  0  0  0  0  0  0  0  0
   24.5598    1.3986    0.0000 N   0  0  0  0  0  0  0  0  0  0  0  0
   18.2490    1.8348    0.0000 C   0  0  0  0  0  0  0  0  0  0  0  0
   13.9804    4.1056    0.0000 O   0  0  0  0  0  0  0  0  0  0  0  0
   25.6966    2.1951    0.0000 C   0  0  0  0  0  0  0  0  0  0  0  0
   20.9950    1.3488    0.0000 C   0  0  0  0  0  0  0  0  0  0  0  0
   24.6313    0.0000    0.0000 C   0  0  0  0  0  0  0  0  0  0  0  0
   19.1428    2.9123    0.0000 C   0  0  0  0  0  0  0  0  0  0  0  0
   18.7161    0.5170    0.0000 C   0  0  0  0  0  0  0  0  0  0  0  0
   20.5215    2.6632    0.0000 C   0  0  0  0  0  0  0  0  0  0  0  0
   20.0934    0.2703    0.0000 C   0  0  0  0  0  0  0  0  0  0  0  0
   24.4170    9.2885    0.0000 C   0  0  0  0  0  0  0  0  0  0  0  0
   24.5406   10.7063    0.0000 C   0  0  0  0  0  0  0  0  0  0  0  0
   16.9270    2.1531    0.0000 O   0  0  0  0  0  0  0  0  0  0  0  0
   23.2029    7.7051    0.0000 O   0  0  0  0  0  0  0  0  0  0  0  0
   24.4157    8.4053    0.0000 C   0  0  0  0  0  0  0  0  0  0  0  0
  3  4  1  0  0  0  0
  3  5  2  0  0  0  0
  3  6  1  0  0  0  0
  4  7  2  0  0  0  0
  4  8  1  0  0  0  0
  5  9  1  0  0  0  0
  5 10  1  0  0  0  0
  6 11  1  1  0  0  0
  6 12  1  0  0  0  0
  7 13  1  0  0  0  0
  7 14  1  0  0  0  0
  8 15  1  0  0  0  0
  9 13  2  0  0  0  0
 10 16  1  0  0  0  0
 11 17  1  0  0  0  0
 12 18  1  0  0  0  0
 12 16  1  0  0  0  0
 13 19  1  0  0  0  0
 15 20  2  0  0  0  0
 15 21  1  0  0  0  0
 17 22  2  0  0  0  0
 17 23  1  0  0  0  0
 20 24  1  0  0  0  0
 21 25  2  0  0  0  0
 22 26  1  0  0  0  0
 23 27  2  0  0  0  0
 24 28  2  0  0  0  0
 24 29  1  0  0  0  0
 25 28  1  0  0  0  0
 26 30  2  0  0  0  0
 27 30  1  0  0  0  0
 28 31  1  0  0  0  0
 29 32  1  1  0  0  0
 29 33  1  0  0  0  0
 30 35  1  0  0  0  0
 31 36  1  0  0  0  0
 32 37  1  0  0  0  0
 33 38  1  0  0  0  0
 33 36  1  0  0  0  0
 34 39  2  0  0  0  0
 34 40  1  0  0  0  0
 37 41  2  0  0  0  0
 37 42  1  0  0  0  0
 39 41  1  0  0  0  0
 40 42  2  0  0  0  0
 14 43  1  0  0  0  0
 19 44  1  0  0  0  0
 26 45  1  0  0  0  0
 45 34  1  0  0  0  0
 21 46  1  0  0  0  0
 46 47  1  0  0  0  0
M  END
>  <Mol_ID> (301)
1749

>  <Formula> (301)
C37H42Cl2N2O6

>  <MolWeight> (301)
681.64518

>  <Cat> (301)
S3609

>  <Name> (301)
Berbamine (dihydrochloride)

>  <Synonyms> (301)
N/A

>  <Target> (301)
NF-B,bcr/abl

>  <Form> (301)
dihydrochloride

>  <CAS> (301)
6078-17-7

>  <URL> (301)
http://www.selleckchem.com/products/berbamine-dihydrochloride.html

$$$$
S3612 Rosmarinic acid.cdx
csChFnd80/05071909292D

 26 27  0  0  0  0  0  0  0  0999 V2000
   10.9118    2.0905    0.0000 C   0  0  0  0  0  0  0  0  0  0  0  0
    9.6994    2.7905    0.0000 C   0  0  0  0  0  0  0  0  0  0  0  0
   12.1346    2.7964    0.0000 C   0  0  0  0  0  0  0  0  0  0  0  0
   10.9118    0.7025    0.0000 C   0  0  0  0  0  0  0  0  0  0  0  0
    9.6994    4.1905    0.0000 C   0  0  1  0  0  0  0  0  0  0  0  0
   13.3366    2.1024    0.0000 C   0  0  0  0  0  0  0  0  0  0  0  0
   12.1240    0.0027    0.0000 C   0  0  0  0  0  0  0  0  0  0  0  0
    8.4869    4.8905    0.0000 O   0  0  0  0  0  0  0  0  0  0  0  0
   10.9118    4.8905    0.0000 C   0  0  0  0  0  0  0  0  0  0  0  0
   13.3366    0.7034    0.0000 C   0  0  0  0  0  0  0  0  0  0  0  0
   14.5501    2.8031    0.0000 O   0  0  0  0  0  0  0  0  0  0  0  0
    7.2745    4.1905    0.0000 C   0  0  0  0  0  0  0  0  0  0  0  0
   12.1242    4.1905    0.0000 O   0  0  0  0  0  0  0  0  0  0  0  0
   10.9118    6.2905    0.0000 O   0  0  0  0  0  0  0  0  0  0  0  0
   14.5549    0.0000    0.0000 O   0  0  0  0  0  0  0  0  0  0  0  0
    6.0621    4.8905    0.0000 C   0  0  0  0  0  0  0  0  0  0  0  0
    7.2745    2.7905    0.0000 O   0  0  0  0  0  0  0  0  0  0  0  0
    4.8496    4.1905    0.0000 C   0  0  0  0  0  0  0  0  0  0  0  0
    3.6372    4.8905    0.0000 C   0  0  0  0  0  0  0  0  0  0  0  0
    2.4249    4.1905    0.0000 C   0  0  0  0  0  0  0  0  0  0  0  0
    3.6372    6.2906    0.0000 C   0  0  0  0  0  0  0  0  0  0  0  0
    1.2124    4.8906    0.0000 C   0  0  0  0  0  0  0  0  0  0  0  0
    2.4248    6.9906    0.0000 C   0  0  0  0  0  0  0  0  0  0  0  0
    1.2124    6.2907    0.0000 C   0  0  0  0  0  0  0  0  0  0  0  0
    0.0000    4.1906    0.0000 O   0  0  0  0  0  0  0  0  0  0  0  0
    0.0000    6.9906    0.0000 O   0  0  0  0  0  0  0  0  0  0  0  0
  1  2  1  0  0  0  0
  1  3  1  0  0  0  0
  1  4  2  0  0  0  0
  5  2  1  1  0  0  0
  3  6  2  0  0  0  0
  4  7  1  0  0  0  0
  5  8  1  0  0  0  0
  5  9  1  0  0  0  0
  6 10  1  0  0  0  0
  6 11  1  0  0  0  0
  7 10  2  0  0  0  0
  8 12  1  0  0  0  0
  9 13  1  0  0  0  0
  9 14  2  0  0  0  0
 10 15  1  0  0  0  0
 12 16  1  0  0  0  0
 12 17  2  0  0  0  0
 16 18  2  0  0  0  0
 18 19  1  0  0  0  0
 19 20  1  0  0  0  0
 19 21  2  0  0  0  0
 20 22  2  0  0  0  0
 21 23  1  0  0  0  0
 22 24  1  0  0  0  0
 22 25  1  0  0  0  0
 23 24  2  0  0  0  0
 24 26  1  0  0  0  0
M  END
>  <Mol_ID> (302)
1750

>  <Formula> (302)
C18H16O8

>  <MolWeight> (302)
360.31484

>  <Cat> (302)
S3612

>  <Name> (302)
Rosmarinic acid

>  <Synonyms> (302)
Rosemary acid

>  <Target> (302)
IKK 

>  <Form> (302)
free base

>  <CAS> (302)
20283-92-5

>  <URL> (302)
http://www.selleckchem.com/products/rosmarinic-acid.html

$$$$
S3615 Dehydrocostus Lactone.cdx
csChFnd80/05071909292D

 19 21  0  0  0  0  0  0  0  0999 V2000
    2.7509    2.2225    0.0000 O   0  0  0  0  0  0  0  0  0  0  0  0
    3.1858    3.5533    0.0000 C   0  0  1  0  0  0  0  0  0  0  0  0
    4.5841    3.5548    0.0000 C   0  0  2  0  0  0  0  0  0  0  0  0
    5.0184    2.2253    0.0000 C   0  0  0  0  0  0  0  0  0  0  0  0
    3.8868    1.4000    0.0000 C   0  0  0  0  0  0  0  0  0  0  0  0
    1.4125    6.7363    0.0000 C   0  0  0  0  0  0  0  0  0  0  0  0
    0.3705    5.8013    0.0000 C   0  0  0  0  0  0  0  0  0  0  0  0
    0.9160    4.5210    0.0000 C   0  0  0  0  0  0  0  0  0  0  0  0
    2.3103    4.6475    0.0000 C   0  0  1  0  0  0  0  0  0  0  0  0
    5.4441    4.6475    0.0000 C   0  0  0  0  0  0  0  0  0  0  0  0
    5.1553    6.0174    0.0000 C   0  0  0  0  0  0  0  0  0  0  0  0
    3.8682    6.6336    0.0000 C   0  0  0  0  0  0  0  0  0  0  0  0
    2.6533    6.0001    0.0000 C   0  0  2  0  0  0  0  0  0  0  0  0
    3.8868    0.0000    0.0000 O   0  0  0  0  0  0  0  0  0  0  0  0
    0.0000    3.4623    0.0000 C   0  0  0  0  0  0  0  0  0  0  0  0
    3.8682    8.0336    0.0000 C   0  0  0  0  0  0  0  0  0  0  0  0
    6.3505    1.7947    0.0000 C   0  0  0  0  0  0  0  0  0  0  0  0
    2.6533    7.3991    0.0000 H   0  0  0  0  0  0  0  0  0  0  0  0
    1.6103    3.4351    0.0000 H   0  0  0  0  0  0  0  0  0  0  0  0
  2  1  1  6  0  0  0
  2  3  1  0  0  0  0
  3  4  1  1  0  0  0
  4  5  1  0  0  0  0
  1  5  1  0  0  0  0
  6  7  1  0  0  0  0
  7  8  1  0  0  0  0
  8  9  1  0  0  0  0
 10 11  1  0  0  0  0
 11 12  1  0  0  0  0
 12 13  1  0  0  0  0
  6 13  1  0  0  0  0
  9 13  1  0  0  0  0
  2  9  1  0  0  0  0
  3 10  1  0  0  0  0
  5 14  2  0  0  0  0
  8 15  2  0  0  0  0
 12 16  2  0  0  0  0
  4 17  2  0  0  0  0
 13 18  1  6  0  0  0
  9 19  1  6  0  0  0
M  END
>  <Mol_ID> (303)
1771

>  <Formula> (303)
C15H18O2

>  <MolWeight> (303)
230.30222

>  <Cat> (303)
S3615

>  <Name> (303)
Dehydrocostus Lactone

>  <Synonyms> (303)
N/A

>  <Target> (303)
 IKK

>  <Form> (303)
free base

>  <CAS> (303)
477-43-0

>  <URL> (303)
http://www.selleckchem.com/products/dehydrocostus-lactone.html

$$$$
S3661 2-Methoxy-1,4-naphthoquinone.cdx
csChFnd80/05071909292D

 14 15  0  0  0  0  0  0  0  0999 V2000
    2.4249    3.5000    0.0000 C   0  0  0  0  0  0  0  0  0  0  0  0
    2.4249    2.1000    0.0000 C   0  0  0  0  0  0  0  0  0  0  0  0
    3.6373    4.2000    0.0000 C   0  0  0  0  0  0  0  0  0  0  0  0
    1.2124    4.2000    0.0000 C   0  0  0  0  0  0  0  0  0  0  0  0
    3.6373    1.4000    0.0000 C   0  0  0  0  0  0  0  0  0  0  0  0
    1.2124    1.4000    0.0000 C   0  0  0  0  0  0  0  0  0  0  0  0
    4.8497    3.5000    0.0000 C   0  0  0  0  0  0  0  0  0  0  0  0
    3.6373    5.6000    0.0000 O   0  0  0  0  0  0  0  0  0  0  0  0
    0.0000    3.5000    0.0000 C   0  0  0  0  0  0  0  0  0  0  0  0
    4.8497    2.1000    0.0000 C   0  0  0  0  0  0  0  0  0  0  0  0
    3.6373    0.0000    0.0000 O   0  0  0  0  0  0  0  0  0  0  0  0
    0.0000    2.1000    0.0000 C   0  0  0  0  0  0  0  0  0  0  0  0
    6.0622    4.2000    0.0000 O   0  0  0  0  0  0  0  0  0  0  0  0
    7.2746    3.5000    0.0000 C   0  0  0  0  0  0  0  0  0  0  0  0
  1  2  2  0  0  0  0
  1  3  1  0  0  0  0
  1  4  1  0  0  0  0
  2  5  1  0  0  0  0
  2  6  1  0  0  0  0
  3  7  1  0  0  0  0
  3  8  2  0  0  0  0
  4  9  2  0  0  0  0
  5 10  1  0  0  0  0
  5 11  2  0  0  0  0
  6 12  2  0  0  0  0
  7 13  1  0  0  0  0
  7 10  2  0  0  0  0
  9 12  1  0  0  0  0
 13 14  1  0  0  0  0
M  END
>  <Mol_ID> (304)
1789

>  <Formula> (304)
C11H8O3

>  <MolWeight> (304)
188.17942

>  <Cat> (304)
S3661

>  <Name> (304)
2-Methoxy-1,4-naphthoquinone

>  <Synonyms> (304)
N/A

>  <Target> (304)
PKC

>  <Form> (304)
free base

>  <CAS> (304)
2348-82-5

>  <URL> (304)
http://www.selleckchem.com/products/2-methoxy-1-4-naphthoquinone.html

$$$$
S3648 Amlexanox.cdx
csChFnd80/05071909292D

 22 24  0  0  0  0  0  0  0  0999 V2000
    7.2876    2.1158    0.0000 C   0  0  0  0  0  0  0  0  0  0  0  0
    7.2876    0.7052    0.0000 C   0  0  0  0  0  0  0  0  0  0  0  0
    6.0820    2.8160    0.0000 C   0  0  0  0  0  0  0  0  0  0  0  0
    8.4987    2.8160    0.0000 C   0  0  0  0  0  0  0  0  0  0  0  0
    6.0814    0.0000    0.0000 O   0  0  0  0  0  0  0  0  0  0  0  0
    8.4987    0.0000    0.0000 N   0  0  0  0  0  0  0  0  0  0  0  0
    4.8704    2.1158    0.0000 C   0  0  0  0  0  0  0  0  0  0  0  0
    6.0820    4.2126    0.0000 O   0  0  0  0  0  0  0  0  0  0  0  0
    9.7418    2.1192    0.0000 C   0  0  0  0  0  0  0  0  0  0  0  0
    4.8704    0.7052    0.0000 C   0  0  0  0  0  0  0  0  0  0  0  0
    9.7423    0.7027    0.0000 C   0  0  0  0  0  0  0  0  0  0  0  0
    3.6591    2.8160    0.0000 C   0  0  0  0  0  0  0  0  0  0  0  0
   10.9513    2.8175    0.0000 C   0  0  0  0  0  0  0  0  0  0  0  0
    3.6591    0.0000    0.0000 C   0  0  0  0  0  0  0  0  0  0  0  0
   10.9518    0.0044    0.0000 N   0  0  0  0  0  0  0  0  0  0  0  0
    2.4160    2.1192    0.0000 C   0  0  0  0  0  0  0  0  0  0  0  0
   12.1578    2.1209    0.0000 O   0  0  0  0  0  0  0  0  0  0  0  0
   10.9513    4.2175    0.0000 O   0  0  0  0  0  0  0  0  0  0  0  0
    2.4141    0.7052    0.0000 C   0  0  0  0  0  0  0  0  0  0  0  0
    1.2065    2.8175    0.0000 C   0  0  0  0  0  0  0  0  0  0  0  0
    1.2065    4.2175    0.0000 C   0  0  0  0  0  0  0  0  0  0  0  0
    0.0000    2.1209    0.0000 C   0  0  0  0  0  0  0  0  0  0  0  0
  1  2  1  0  0  0  0
  1  3  1  0  0  0  0
  1  4  2  0  0  0  0
  2  5  1  0  0  0  0
  2  6  2  0  0  0  0
  3  7  1  0  0  0  0
  3  8  2  0  0  0  0
  4  9  1  0  0  0  0
  5 10  1  0  0  0  0
  6 11  1  0  0  0  0
  7 12  1  0  0  0  0
  7 10  2  0  0  0  0
  9 13  1  0  0  0  0
  9 11  2  0  0  0  0
 10 14  1  0  0  0  0
 11 15  1  0  0  0  0
 12 16  2  0  0  0  0
 13 17  1  0  0  0  0
 13 18  2  0  0  0  0
 14 19  2  0  0  0  0
 16 20  1  0  0  0  0
 16 19  1  0  0  0  0
 20 21  1  0  0  0  0
 20 22  1  0  0  0  0
M  END
>  <Mol_ID> (305)
1816

>  <Formula> (305)
C16H14N2O4

>  <MolWeight> (305)
298.29336

>  <Cat> (305)
S3648

>  <Name> (305)
Amlexanox

>  <Synonyms> (305)
AA-673, CHX-3673

>  <Target> (305)
TBK1,IKK-

>  <Form> (305)
free base

>  <CAS> (305)
68302-57-8

>  <URL> (305)
http://www.selleckchem.com/products/amlexanox.html

$$$$
Solanesol.cdx
csChFnd80/05071909292D

 46 45  0  0  0  0  0  0  0  0999 V2000
    0.0000   10.5171    0.0000 O   0  0  0  0  0  0  0  0  0  0  0  0
    1.2167    9.8146    0.0000 C   0  0  0  0  0  0  0  0  0  0  0  0
    1.2167    8.4098    0.0000 C   0  0  0  0  0  0  0  0  0  0  0  0
    2.4291    7.7098    0.0000 C   0  0  0  0  0  0  0  0  0  0  0  0
    2.4291    6.3098    0.0000 C   0  0  0  0  0  0  0  0  0  0  0  0
    3.6415    8.4098    0.0000 C   0  0  0  0  0  0  0  0  0  0  0  0
    1.2167    5.6098    0.0000 C   0  0  0  0  0  0  0  0  0  0  0  0
    1.2167    4.2049    0.0000 C   0  0  0  0  0  0  0  0  0  0  0  0
    2.4333    3.5024    0.0000 C   0  0  0  0  0  0  0  0  0  0  0  0
    3.6458    4.2024    0.0000 C   0  0  0  0  0  0  0  0  0  0  0  0
    2.4333    2.1024    0.0000 C   0  0  0  0  0  0  0  0  0  0  0  0
    3.6500    1.4000    0.0000 C   0  0  0  0  0  0  0  0  0  0  0  0
    4.8624    2.1000    0.0000 C   0  0  0  0  0  0  0  0  0  0  0  0
    6.0748    1.4000    0.0000 C   0  0  0  0  0  0  0  0  0  0  0  0
    7.2915    2.1024    0.0000 C   0  0  0  0  0  0  0  0  0  0  0  0
    8.5039    1.4024    0.0000 C   0  0  0  0  0  0  0  0  0  0  0  0
    9.7164    2.1024    0.0000 C   0  0  0  0  0  0  0  0  0  0  0  0
   10.9288    1.4024    0.0000 C   0  0  0  0  0  0  0  0  0  0  0  0
   12.1412    2.1024    0.0000 C   0  0  0  0  0  0  0  0  0  0  0  0
   13.3537    1.4024    0.0000 C   0  0  0  0  0  0  0  0  0  0  0  0
   14.5661    2.1024    0.0000 C   0  0  0  0  0  0  0  0  0  0  0  0
   15.7786    1.4024    0.0000 C   0  0  0  0  0  0  0  0  0  0  0  0
   16.9910    2.1024    0.0000 C   0  0  0  0  0  0  0  0  0  0  0  0
   18.2034    1.4024    0.0000 C   0  0  0  0  0  0  0  0  0  0  0  0
   19.4159    2.1024    0.0000 C   0  0  0  0  0  0  0  0  0  0  0  0
   20.6283    1.4024    0.0000 C   0  0  0  0  0  0  0  0  0  0  0  0
   21.8407    2.1024    0.0000 C   0  0  0  0  0  0  0  0  0  0  0  0
   23.0532    1.4024    0.0000 C   0  0  0  0  0  0  0  0  0  0  0  0
   24.2656    2.1024    0.0000 C   0  0  0  0  0  0  0  0  0  0  0  0
   25.4780    1.4024    0.0000 C   0  0  0  0  0  0  0  0  0  0  0  0
   26.6905    2.1024    0.0000 C   0  0  0  0  0  0  0  0  0  0  0  0
   27.9029    1.4024    0.0000 C   0  0  0  0  0  0  0  0  0  0  0  0
   29.1153    2.1024    0.0000 C   0  0  0  0  0  0  0  0  0  0  0  0
   30.3278    1.4024    0.0000 C   0  0  0  0  0  0  0  0  0  0  0  0
   31.5402    2.1024    0.0000 C   0  0  0  0  0  0  0  0  0  0  0  0
   32.7527    1.4024    0.0000 C   0  0  0  0  0  0  0  0  0  0  0  0
   33.9651    2.1024    0.0000 C   0  0  0  0  0  0  0  0  0  0  0  0
   35.1775    1.4024    0.0000 C   0  0  0  0  0  0  0  0  0  0  0  0
   35.1775    0.0024    0.0000 C   0  0  0  0  0  0  0  0  0  0  0  0
   36.3900    2.1024    0.0000 C   0  0  0  0  0  0  0  0  0  0  0  0
   30.3278    0.0024    0.0000 C   0  0  0  0  0  0  0  0  0  0  0  0
   25.4780    0.0024    0.0000 C   0  0  0  0  0  0  0  0  0  0  0  0
   20.6283    0.0024    0.0000 C   0  0  0  0  0  0  0  0  0  0  0  0
   15.7786    0.0024    0.0000 C   0  0  0  0  0  0  0  0  0  0  0  0
   10.9288    0.0024    0.0000 C   0  0  0  0  0  0  0  0  0  0  0  0
    6.0748    0.0000    0.0000 C   0  0  0  0  0  0  0  0  0  0  0  0
  1  2  1  0  0  0  0
  2  3  1  0  0  0  0
  3  4  2  0  0  0  0
  4  5  1  0  0  0  0
  4  6  1  0  0  0  0
  5  7  1  0  0  0  0
  7  8  1  0  0  0  0
  8  9  2  0  0  0  0
  9 10  1  0  0  0  0
  9 11  1  0  0  0  0
 11 12  1  0  0  0  0
 12 13  1  0  0  0  0
 13 14  2  0  0  0  0
 14 15  1  0  0  0  0
 15 16  1  0  0  0  0
 16 17  1  0  0  0  0
 17 18  2  0  0  0  0
 18 19  1  0  0  0  0
 19 20  1  0  0  0  0
 20 21  1  0  0  0  0
 21 22  2  0  0  0  0
 22 23  1  0  0  0  0
 23 24  1  0  0  0  0
 24 25  1  0  0  0  0
 25 26  2  0  0  0  0
 26 27  1  0  0  0  0
 27 28  1  0  0  0  0
 28 29  1  0  0  0  0
 29 30  2  0  0  0  0
 30 31  1  0  0  0  0
 31 32  1  0  0  0  0
 32 33  1  0  0  0  0
 33 34  2  0  0  0  0
 34 35  1  0  0  0  0
 35 36  1  0  0  0  0
 36 37  1  0  0  0  0
 37 38  2  0  0  0  0
 38 39  1  0  0  0  0
 38 40  1  0  0  0  0
 34 41  1  0  0  0  0
 30 42  1  0  0  0  0
 26 43  1  0  0  0  0
 22 44  1  0  0  0  0
 18 45  1  0  0  0  0
 14 46  1  0  0  0  0
M  END
>  <Mol_ID> (306)
1887

>  <Formula> (306)
C45H74O

>  <MolWeight> (306)
631.06846

>  <Cat> (306)
S2360

>  <Name> (306)
Solanesol (Nonaisoprenol)

>  <Synonyms> (306)
Nonaisoprenol, Betulanonaprenol

>  <Target> (306)
FAK

>  <Form> (306)
free base

>  <CAS> (306)
13190-97-1

>  <URL> (306)
http://www.selleckchem.com/products/solanesol-nonaisoprenol.html

$$$$
S3817 Harmine hydrochloride.cdx
csChFnd80/05071909292D

 17 18  0  0  0  0  0  0  0  0999 V2000
    6.2770    2.8128    0.0000 C   0  0  0  0  0  0  0  0  0  0  0  0
    4.8858    3.1021    0.0000 C   0  0  0  0  0  0  0  0  0  0  0  0
    6.9751    4.0220    0.0000 C   0  0  0  0  0  0  0  0  0  0  0  0
    7.1192    1.6319    0.0000 C   0  0  0  0  0  0  0  0  0  0  0  0
    4.8043    4.5009    0.0000 C   0  0  0  0  0  0  0  0  0  0  0  0
    3.6523    2.3899    0.0000 C   0  0  0  0  0  0  0  0  0  0  0  0
    6.0433    5.0390    0.0000 N   0  0  0  0  0  0  0  0  0  0  0  0
    8.3108    4.1722    0.0000 C   0  0  0  0  0  0  0  0  0  0  0  0
    8.5318    1.7680    0.0000 C   0  0  0  0  0  0  0  0  0  0  0  0
    3.6181    5.1857    0.0000 C   0  0  0  0  0  0  0  0  0  0  0  0
    2.4289    3.0963    0.0000 C   0  0  0  0  0  0  0  0  0  0  0  0
    9.1206    3.0422    0.0000 N   0  0  0  0  0  0  0  0  0  0  0  0
    8.8917    5.4460    0.0000 C   0  0  0  0  0  0  0  0  0  0  0  0
    2.4241    4.4963    0.0000 C   0  0  0  0  0  0  0  0  0  0  0  0
    1.2070    5.1990    0.0000 O   0  0  0  0  0  0  0  0  0  0  0  0
    0.0000    4.5022    0.0000 C   0  0  0  0  0  0  0  0  0  0  0  0
    5.7130    0.0000    0.0000 Cl  0  0  0  0  0  0  0  0  0  0  0  0
  1  2  1  0  0  0  0
  1  3  1  0  0  0  0
  1  4  2  0  0  0  0
  2  5  2  0  0  0  0
  2  6  1  0  0  0  0
  3  7  1  0  0  0  0
  3  8  2  0  0  0  0
  4  9  1  0  0  0  0
  5 10  1  0  0  0  0
  5  7  1  0  0  0  0
  6 11  2  0  0  0  0
  8 12  1  0  0  0  0
  8 13  1  0  0  0  0
  9 12  2  0  0  0  0
 10 14  2  0  0  0  0
 11 14  1  0  0  0  0
 14 15  1  0  0  0  0
 15 16  1  0  0  0  0
M  END
>  <Mol_ID> (307)
1894

>  <Formula> (307)
C13H13ClN2O

>  <MolWeight> (307)
248.70812

>  <Cat> (307)
S3817

>  <Name> (307)
Harmine hydrochloride

>  <Synonyms> (307)
telepathine hydrochloride

>  <Target> (307)
DYRK1A,MNB,DYRK1B,DYRK2

>  <Form> (307)
hydrochloride

>  <CAS> (307)
343-27-1

>  <URL> (307)
http://www.selleckchem.com/products/harmine-hydrochloride.html

$$$$
S3759 Norcantharidin.cdx
csChFnd80/05071909292D

 12 14  0  0  0  0  0  0  0  0999 V2000
    0.2182    0.4125    0.0000 C   0  0  0  0  0  0  0  0  0  0  0  0
    1.2081    1.4028    0.0000 C   0  0  3  0  0  0  0  0  0  0  0  0
    2.5609    1.7635    0.0000 C   0  0  3  0  0  0  0  0  0  0  0  0
    2.5640    3.1635    0.0000 C   0  0  3  0  0  0  0  0  0  0  0  0
    0.2213    1.8125    0.0000 C   0  0  0  0  0  0  0  0  0  0  0  0
    1.2111    2.8028    0.0000 C   0  0  3  0  0  0  0  0  0  0  0  0
    0.0000    3.5026    0.0000 O   0  0  0  0  0  0  0  0  0  0  0  0
    3.8915    1.3279    0.0000 C   0  0  0  0  0  0  0  0  0  0  0  0
    4.7168    2.4587    0.0000 O   0  0  0  0  0  0  0  0  0  0  0  0
    3.9444    3.5920    0.0000 C   0  0  0  0  0  0  0  0  0  0  0  0
    4.4040    4.9094    0.0000 O   0  0  0  0  0  0  0  0  0  0  0  0
    4.3197    0.0000    0.0000 O   0  0  0  0  0  0  0  0  0  0  0  0
  1  2  1  0  0  0  0
  2  3  1  0  0  0  0
  3  4  1  0  0  0  0
  1  5  1  0  0  0  0
  5  6  1  0  0  0  0
  4  6  1  0  0  0  0
  6  7  1  0  0  0  0
  2  7  1  0  0  0  0
  3  8  1  0  0  0  0
  8  9  1  0  0  0  0
  9 10  1  0  0  0  0
 10  4  1  0  0  0  0
 10 11  2  0  0  0  0
  8 12  2  0  0  0  0
M  END
>  <Mol_ID> (308)
1923

>  <Formula> (308)
C8H8O4

>  <MolWeight> (308)
168.14672

>  <Cat> (308)
S3759

>  <Name> (308)
Norcantharidin

>  <Synonyms> (308)
Endothall anhydride

>  <Target> (308)
c-Met,EGFR

>  <Form> (308)
free base

>  <CAS> (308)
29745-04-8

>  <URL> (308)
http://www.selleckchem.com/products/norcantharidin.html

$$$$
S3881 Scopoletin.cdx
csChFnd80/05071909292D

 14 15  0  0  0  0  0  0  0  0999 V2000
    4.8567    2.1044    0.0000 C   0  0  0  0  0  0  0  0  0  0  0  0
    4.8554    0.7182    0.0000 C   0  0  0  0  0  0  0  0  0  0  0  0
    3.6411    2.7969    0.0000 C   0  0  0  0  0  0  0  0  0  0  0  0
    6.0567    2.8126    0.0000 C   0  0  0  0  0  0  0  0  0  0  0  0
    3.6532    0.0000    0.0000 C   0  0  0  0  0  0  0  0  0  0  0  0
    6.0711    0.0257    0.0000 O   0  0  0  0  0  0  0  0  0  0  0  0
    2.4241    2.0911    0.0000 C   0  0  0  0  0  0  0  0  0  0  0  0
    7.2715    2.1168    0.0000 C   0  0  0  0  0  0  0  0  0  0  0  0
    2.4309    0.7035    0.0000 C   0  0  0  0  0  0  0  0  0  0  0  0
    7.2810    0.7059    0.0000 C   0  0  0  0  0  0  0  0  0  0  0  0
    1.2113    2.7913    0.0000 O   0  0  0  0  0  0  0  0  0  0  0  0
    1.2181    0.0033    0.0000 O   0  0  0  0  0  0  0  0  0  0  0  0
    8.4938    0.0057    0.0000 O   0  0  0  0  0  0  0  0  0  0  0  0
    0.0000    2.0919    0.0000 C   0  0  0  0  0  0  0  0  0  0  0  0
  1  2  2  0  0  0  0
  1  3  1  0  0  0  0
  1  4  1  0  0  0  0
  2  5  1  0  0  0  0
  2  6  1  0  0  0  0
  3  7  2  0  0  0  0
  4  8  2  0  0  0  0
  5  9  2  0  0  0  0
  6 10  1  0  0  0  0
  7 11  1  0  0  0  0
  7  9  1  0  0  0  0
  8 10  1  0  0  0  0
  9 12  1  0  0  0  0
 10 13  2  0  0  0  0
 11 14  1  0  0  0  0
M  END
>  <Mol_ID> (309)
1969

>  <Formula> (309)
C10H8O4

>  <MolWeight> (309)
192.16812

>  <Cat> (309)
S3881

>  <Name> (309)
Scopoletin

>  <Synonyms> (309)
Esculetin 6-methyl ether, Gelseminic acid, 6-Methylesculetin, Chrysatropic acid

>  <Target> (309)
Immunology & Inflammation related

>  <Form> (309)
free base

>  <CAS> (309)
92-61-5

>  <URL> (309)
http://www.selleckchem.com/products/scopoletin.html

$$$$
S3785 Notoginsenoside R1.cdx
csChFnd80/05071909292D

 68 74  0  0  0  0  0  0  0  0999 V2000
    6.9238    8.9622    0.0000 C   0  0  1  0  0  0  0  0  0  0  0  0
    8.0285    9.6191    0.0000 C   0  0  1  0  0  0  0  0  0  0  0  0
    5.6762    9.6479    0.0000 C   0  0  1  0  0  0  0  0  0  0  0  0
    6.9525    7.5240    0.0000 C   0  0  0  0  0  0  0  0  0  0  0  0
    6.8666   10.3430    0.0000 C   0  0  0  0  0  0  0  0  0  0  0  0
    8.0475   11.0288    0.0000 C   0  0  1  0  0  0  0  0  0  0  0  0
    9.3238    9.1524    0.0000 C   0  0  0  0  0  0  0  0  0  0  0  0
    8.0285    8.2383    0.0000 C   0  0  0  0  0  0  0  0  0  0  0  0
    4.5239    8.9905    0.0000 C   0  0  2  0  0  0  0  0  0  0  0  0
    5.6762   11.0573    0.0000 C   0  0  0  0  0  0  0  0  0  0  0  0
    5.7334    6.8383    0.0000 C   0  0  1  0  0  0  0  0  0  0  0  0
    9.3713   11.4669    0.0000 C   0  0  2  0  0  0  0  0  0  0  0  0
    6.8666   11.7715    0.0000 C   0  0  1  0  0  0  0  0  0  0  0  0
   10.2000   10.2572    0.0000 C   0  0  0  0  0  0  0  0  0  0  0  0
    4.5239    7.5525    0.0000 C   0  0  1  0  0  0  0  0  0  0  0  0
    3.2762    9.7048    0.0000 C   0  0  0  0  0  0  0  0  0  0  0  0
    4.4381   10.3905    0.0000 C   0  0  0  0  0  0  0  0  0  0  0  0
    5.7619    4.1335    0.0000 O   0  0  0  0  0  0  0  0  0  0  0  0
   10.0953   13.2859    0.0000 C   0  0  1  0  0  0  0  0  0  0  0  0
    6.8666   13.1525    0.0000 O   0  0  0  0  0  0  0  0  0  0  0  0
    3.2762    6.8955    0.0000 C   0  0  0  0  0  0  0  0  0  0  0  0
    2.0382    9.0192    0.0000 C   0  0  0  0  0  0  0  0  0  0  0  0
    4.6287    3.4667    0.0000 C   0  0  1  0  0  0  0  0  0  0  0  0
    9.4000   14.4762    0.0000 O   0  0  0  0  0  0  0  0  0  0  0  0
   11.4478   13.6477    0.0000 C   0  0  0  0  0  0  0  0  0  0  0  0
    2.0667    7.5812    0.0000 C   0  0  2  0  0  0  0  0  0  0  0  0
    4.0476    5.6479    0.0000 C   0  0  0  0  0  0  0  0  0  0  0  0
    2.5906    5.6479    0.0000 C   0  0  0  0  0  0  0  0  0  0  0  0
    4.6287    2.0956    0.0000 C   0  0  2  0  0  0  0  0  0  0  0  0
    3.3620    4.0763    0.0000 O   0  0  0  0  0  0  0  0  0  0  0  0
   10.0953   15.7428    0.0000 C   0  0  2  0  0  0  0  0  0  0  0  0
   12.2954   12.6288    0.0000 C   0  0  0  0  0  0  0  0  0  0  0  0
    0.8573    6.8955    0.0000 O   0  0  0  0  0  0  0  0  0  0  0  0
    6.3714    1.3717    0.0000 O   0  0  0  0  0  0  0  0  0  0  0  0
    3.4192    1.3717    0.0000 C   0  0  2  0  0  0  0  0  0  0  0  0
    2.2001    3.4192    0.0000 C   0  0  1  0  0  0  0  0  0  0  0  0
   11.4478   15.7428    0.0000 O   0  0  0  0  0  0  0  0  0  0  0  0
    9.4572   16.9907    0.0000 C   0  0  1  0  0  0  0  0  0  0  0  0
   13.6475   12.9049    0.0000 C   0  0  0  0  0  0  0  0  0  0  0  0
    8.2191    2.0956    0.0000 C   0  0  1  0  0  0  0  0  0  0  0  0
    2.2001    1.9812    0.0000 C   0  0  1  0  0  0  0  0  0  0  0  0
    3.4764    0.0000    0.0000 O   0  0  0  0  0  0  0  0  0  0  0  0
    1.0192    4.0191    0.0000 C   0  0  0  0  0  0  0  0  0  0  0  0
   12.1905   16.9907    0.0000 C   0  0  1  0  0  0  0  0  0  0  0  0
   10.1525   18.1717    0.0000 C   0  0  2  0  0  0  0  0  0  0  0  0
    8.0000   16.9907    0.0000 O   0  0  0  0  0  0  0  0  0  0  0  0
   14.6477   11.8859    0.0000 C   0  0  0  0  0  0  0  0  0  0  0  0
    8.2191    3.4667    0.0000 C   0  0  1  0  0  0  0  0  0  0  0  0
    9.4285    1.5144    0.0000 O   0  0  0  0  0  0  0  0  0  0  0  0
    1.0764    1.3241    0.0000 O   0  0  0  0  0  0  0  0  0  0  0  0
    0.0000    3.0859    0.0000 O   0  0  0  0  0  0  0  0  0  0  0  0
   11.4953   18.1717    0.0000 C   0  0  2  0  0  0  0  0  0  0  0  0
   13.6000   16.8764    0.0000 C   0  0  0  0  0  0  0  0  0  0  0  0
    9.4572   19.4096    0.0000 O   0  0  0  0  0  0  0  0  0  0  0  0
   15.9905   12.1620    0.0000 C   0  0  0  0  0  0  0  0  0  0  0  0
   14.2856   10.5906    0.0000 C   0  0  0  0  0  0  0  0  0  0  0  0
    9.4285    4.1907    0.0000 C   0  0  2  0  0  0  0  0  0  0  0  0
   10.6191    2.1431    0.0000 C   0  0  0  0  0  0  0  0  0  0  0  0
   12.2475   19.3621    0.0000 O   0  0  0  0  0  0  0  0  0  0  0  0
   14.0954   18.2857    0.0000 O   0  0  0  0  0  0  0  0  0  0  0  0
   10.6191    3.5811    0.0000 C   0  0  1  0  0  0  0  0  0  0  0  0
    9.4285    5.5907    0.0000 O   0  0  0  0  0  0  0  0  0  0  0  0
   11.7999    4.3526    0.0000 O   0  0  0  0  0  0  0  0  0  0  0  0
    5.6762    8.2670    0.0000 H   0  0  0  0  0  0  0  0  0  0  0  0
    8.0285   12.4098    0.0000 H   0  0  0  0  0  0  0  0  0  0  0  0
    4.4953    6.2574    0.0000 H   0  0  0  0  0  0  0  0  0  0  0  0
    8.7430   12.9236    0.0000 C   0  0  0  0  0  0  0  0  0  0  0  0
    7.5191    4.6792    0.0000 O   0  0  0  0  0  0  0  0  0  0  0  0
  1  2  1  0  0  0  0
  1  3  1  0  0  0  0
  1  4  1  0  0  0  0
  1  5  1  1  0  0  0
  2  6  1  0  0  0  0
  2  7  1  0  0  0  0
  2  8  1  6  0  0  0
  3  9  1  0  0  0  0
  3 10  1  0  0  0  0
  3 64  1  6  0  0  0
  4 11  1  0  0  0  0
  6 12  1  0  0  0  0
  6 13  1  0  0  0  0
  6 65  1  1  0  0  0
  7 14  1  0  0  0  0
  9 15  1  0  0  0  0
  9 16  1  0  0  0  0
  9 17  1  1  0  0  0
 10 13  1  0  0  0  0
 11 18  1  6  0  0  0
 11 15  1  0  0  0  0
 12 19  1  0  0  0  0
 12 14  1  1  0  0  0
 13 20  1  1  0  0  0
 15 21  1  0  0  0  0
 15 66  1  6  0  0  0
 16 22  1  0  0  0  0
 23 18  1  0  0  0  0
 19 24  1  0  0  0  0
 19 25  1  0  0  0  0
 21 26  1  0  0  0  0
 21 27  1  0  0  0  0
 21 28  1  0  0  0  0
 22 26  1  0  0  0  0
 23 29  1  0  0  0  0
 23 30  1  1  0  0  0
 31 24  1  1  0  0  0
 25 32  1  0  0  0  0
 26 33  1  1  0  0  0
 29 34  1  6  0  0  0
 29 35  1  0  0  0  0
 30 36  1  0  0  0  0
 31 37  1  0  0  0  0
 31 38  1  0  0  0  0
 32 39  1  0  0  0  0
 40 34  1  0  0  0  0
 35 41  1  0  0  0  0
 35 42  1  1  0  0  0
 36 43  1  1  0  0  0
 36 41  1  0  0  0  0
 37 44  1  0  0  0  0
 38 45  1  0  0  0  0
 38 46  1  6  0  0  0
 39 47  2  0  0  0  0
 40 48  1  0  0  0  0
 40 49  1  1  0  0  0
 41 50  1  6  0  0  0
 43 51  1  0  0  0  0
 44 52  1  0  0  0  0
 44 53  1  1  0  0  0
 45 54  1  1  0  0  0
 45 52  1  0  0  0  0
 47 55  1  0  0  0  0
 47 56  1  0  0  0  0
 48 57  1  0  0  0  0
 49 58  1  0  0  0  0
 52 59  1  6  0  0  0
 53 60  1  0  0  0  0
 57 61  1  0  0  0  0
 57 62  1  1  0  0  0
 58 61  1  0  0  0  0
 61 63  1  6  0  0  0
 19 67  1  6  0  0  0
 48 68  1  6  0  0  0
M  END
>  <Mol_ID> (310)
2225

>  <Formula> (310)
C47H80O18

>  <MolWeight> (310)
933.1273

>  <Cat> (310)
S3785

>  <Name> (310)
Notoginsenoside R1

>  <Synonyms> (310)
Sanchinoside R1

>  <Target> (310)
Others

>  <Form> (310)
free base

>  <CAS> (310)
80418-24-2

>  <URL> (310)
http://selleckchem.com/products/notoginsenoside-r1.html

$$$$
GW 5074.cdx
csChFnd80/05071909292D

 21 23  0  0  0  0  0  0  0  0999 V2000
    2.4207    2.8000    0.0000 C   0  0  0  0  0  0  0  0  0  0  0  0
    3.6331    2.1000    0.0000 C   0  0  0  0  0  0  0  0  0  0  0  0
    3.6331    0.7000    0.0000 C   0  0  0  0  0  0  0  0  0  0  0  0
    2.4207    0.0000    0.0000 C   0  0  0  0  0  0  0  0  0  0  0  0
    1.2082    0.7000    0.0000 C   0  0  0  0  0  0  0  0  0  0  0  0
    1.2082    2.1000    0.0000 C   0  0  0  0  0  0  0  0  0  0  0  0
    4.9646    2.5326    0.0000 C   0  0  0  0  0  0  0  0  0  0  0  0
    5.7875    1.4000    0.0000 C   0  0  0  0  0  0  0  0  0  0  0  0
    4.9646    0.2674    0.0000 N   0  0  0  0  0  0  0  0  0  0  0  0
    7.1826    1.4000    0.0000 O   0  0  0  0  0  0  0  0  0  0  0  0
    0.0000    2.7976    0.0000 I   0  0  0  0  0  0  0  0  0  0  0  0
    5.3957    3.8595    0.0000 C   0  0  0  0  0  0  0  0  0  0  0  0
    6.7604    4.1495    0.0000 C   0  0  0  0  0  0  0  0  0  0  0  0
    7.1930    5.4810    0.0000 C   0  0  0  0  0  0  0  0  0  0  0  0
    8.5624    5.7721    0.0000 C   0  0  0  0  0  0  0  0  0  0  0  0
    9.4992    4.7317    0.0000 C   0  0  0  0  0  0  0  0  0  0  0  0
    9.0665    3.4002    0.0000 C   0  0  0  0  0  0  0  0  0  0  0  0
    7.6971    3.1091    0.0000 C   0  0  0  0  0  0  0  0  0  0  0  0
   10.8638    5.0218    0.0000 O   0  0  0  0  0  0  0  0  0  0  0  0
   10.0001    2.3634    0.0000 Br  0  0  0  0  0  0  0  0  0  0  0  0
    8.9935    7.0990    0.0000 Br  0  0  0  0  0  0  0  0  0  0  0  0
  1  2  2  0  0  0  0
  2  3  1  0  0  0  0
  3  4  2  0  0  0  0
  4  5  1  0  0  0  0
  5  6  2  0  0  0  0
  6  1  1  0  0  0  0
  2  7  1  0  0  0  0
  7  8  1  0  0  0  0
  8  9  1  0  0  0  0
  9  3  1  0  0  0  0
  8 10  2  0  0  0  0
  6 11  1  0  0  0  0
  7 12  2  0  0  0  0
 12 13  1  4  0  0  0
 13 14  2  0  0  0  0
 14 15  1  0  0  0  0
 15 16  2  0  0  0  0
 16 17  1  0  0  0  0
 17 18  2  0  0  0  0
 18 13  1  0  0  0  0
 16 19  1  0  0  0  0
 17 20  1  0  0  0  0
 15 21  1  0  0  0  0
M  END
>  <Mol_ID> (311)
2234

>  <Formula> (311)
C15H8Br2INO2

>  <MolWeight> (311)
520.94199

>  <Cat> (311)
S2872

>  <Name> (311)
GW5074

>  <Synonyms> (311)
N/A

>  <Target> (311)
Raf

>  <Form> (311)
free base

>  <CAS> (311)
220904-83-6

>  <URL> (311)
http://selleckchem.com/products/gw5074.html

$$$$
SNS-314 Mesylate.cdx
csChFnd80/05071909292D

 33 35  0  0  0  0  0  0  0  0999 V2000
    2.1148    5.3083    0.0000 C   0  0  0  0  0  0  0  0  0  0  0  0
    2.1148    3.9083    0.0000 C   0  0  0  0  0  0  0  0  0  0  0  0
    3.3272    3.2083    0.0000 N   0  0  0  0  0  0  0  0  0  0  0  0
    4.5397    3.9083    0.0000 C   0  0  0  0  0  0  0  0  0  0  0  0
    4.5397    5.3083    0.0000 N   0  0  0  0  0  0  0  0  0  0  0  0
    3.3272    6.0083    0.0000 C   0  0  0  0  0  0  0  0  0  0  0  0
    0.7625    5.6707    0.0000 S   0  0  0  0  0  0  0  0  0  0  0  0
    0.0000    4.4965    0.0000 C   0  0  0  0  0  0  0  0  0  0  0  0
    0.8810    3.4085    0.0000 C   0  0  0  0  0  0  0  0  0  0  0  0
    3.3272    7.4035    0.0000 N   0  0  0  0  0  0  0  0  0  0  0  0
    4.5355    8.1010    0.0000 C   0  0  0  0  0  0  0  0  0  0  0  0
    5.7437    7.4035    0.0000 C   0  0  0  0  0  0  0  0  0  0  0  0
    6.9519    8.1010    0.0000 C   0  0  0  0  0  0  0  0  0  0  0  0
    8.2309    7.5316    0.0000 S   0  0  0  0  0  0  0  0  0  0  0  0
    9.1677    8.5720    0.0000 C   0  0  0  0  0  0  0  0  0  0  0  0
    8.4677    9.7845    0.0000 N   0  0  0  0  0  0  0  0  0  0  0  0
    7.0982    9.4934    0.0000 C   0  0  0  0  0  0  0  0  0  0  0  0
   10.5552    8.4262    0.0000 N   0  0  0  0  0  0  0  0  0  0  0  0
   11.1226    7.1517    0.0000 C   0  0  0  0  0  0  0  0  0  0  0  0
   12.5101    7.0058    0.0000 N   0  0  0  0  0  0  0  0  0  0  0  0
   10.3026    6.0230    0.0000 O   0  0  0  0  0  0  0  0  0  0  0  0
   13.3560    8.1153    0.0000 C   0  0  0  0  0  0  0  0  0  0  0  0
   14.7446    7.9369    0.0000 C   0  0  0  0  0  0  0  0  0  0  0  0
   15.5934    9.0502    0.0000 C   0  0  0  0  0  0  0  0  0  0  0  0
   15.0536   10.3420    0.0000 C   0  0  0  0  0  0  0  0  0  0  0  0
   13.6650   10.5204    0.0000 C   0  0  0  0  0  0  0  0  0  0  0  0
   12.8162    9.4071    0.0000 C   0  0  0  0  0  0  0  0  0  0  0  0
   16.9771    8.8724    0.0000 Cl  0  0  0  0  0  0  0  0  0  0  0  0
   10.7283    1.4000    0.0000 C   0  0  0  0  0  0  0  0  0  0  0  0
   12.1283    1.4000    0.0000 S   0  0  0  0  0  0  0  0  0  0  0  0
   12.1283    2.8000    0.0000 O   0  0  0  0  0  0  0  0  0  0  0  0
   12.1283    0.0000    0.0000 O   0  0  0  0  0  0  0  0  0  0  0  0
   13.5283    1.4000    0.0000 O   0  0  0  0  0  0  0  0  0  0  0  0
  1  2  2  0  0  0  0
  2  3  1  0  0  0  0
  3  4  2  0  0  0  0
  4  5  1  0  0  0  0
  5  6  2  0  0  0  0
  6  1  1  0  0  0  0
  1  7  1  0  0  0  0
  7  8  1  0  0  0  0
  8  9  2  0  0  0  0
  9  2  1  0  0  0  0
  6 10  1  0  0  0  0
 10 11  1  0  0  0  0
 11 12  1  0  0  0  0
 12 13  1  0  0  0  0
 13 14  1  0  0  0  0
 14 15  1  0  0  0  0
 15 16  2  0  0  0  0
 16 17  1  0  0  0  0
 17 13  2  0  0  0  0
 15 18  1  0  0  0  0
 18 19  1  0  0  0  0
 19 20  1  0  0  0  0
 19 21  2  0  0  0  0
 20 22  1  0  0  0  0
 22 23  2  0  0  0  0
 23 24  1  0  0  0  0
 24 25  2  0  0  0  0
 25 26  1  0  0  0  0
 26 27  2  0  0  0  0
 27 22  1  0  0  0  0
 24 28  1  0  0  0  0
 29 30  1  0  0  0  0
 30 31  2  0  0  0  0
 30 32  2  0  0  0  0
 30 33  1  0  0  0  0
M  END
>  <Mol_ID> (312)
2239

>  <Formula> (312)
C19H19ClN6O4S3

>  <MolWeight> (312)
527.03996

>  <Cat> (312)
S1154

>  <Name> (312)
SNS-314 Mesylate

>  <Synonyms> (312)
N/A

>  <Target> (312)
Aurora Kinase

>  <Form> (312)
Mesylate

>  <CAS> (312)
1146618-41-8

>  <URL> (312)
http://www.selleckchem.com/products/SNS-314.html

$$$$
untitled.cdx
csChFnd80/05071909292D

 34 37  0  0  0  0  0  0  0  0999 V2000
    8.4660    4.1976    0.0000 C   0  0  0  0  0  0  0  0  0  0  0  0
    8.4660    2.7976    0.0000 C   0  0  0  0  0  0  0  0  0  0  0  0
    9.6784    2.0976    0.0000 C   0  0  0  0  0  0  0  0  0  0  0  0
   10.8909    2.7976    0.0000 C   0  0  0  0  0  0  0  0  0  0  0  0
   10.8909    4.1976    0.0000 C   0  0  0  0  0  0  0  0  0  0  0  0
    9.6784    4.8976    0.0000 C   0  0  0  0  0  0  0  0  0  0  0  0
   12.1033    2.0976    0.0000 N   0  0  0  0  0  0  0  0  0  0  0  0
   13.3157    2.7976    0.0000 C   0  0  0  0  0  0  0  0  0  0  0  0
   13.3157    4.1976    0.0000 N   0  0  0  0  0  0  0  0  0  0  0  0
   12.1033    4.8976    0.0000 C   0  0  0  0  0  0  0  0  0  0  0  0
   12.1033    6.2927    0.0000 N   0  0  0  0  0  0  0  0  0  0  0  0
   13.3115    6.9903    0.0000 C   0  0  0  0  0  0  0  0  0  0  0  0
   14.5240    6.2903    0.0000 C   0  0  0  0  0  0  0  0  0  0  0  0
   15.7364    6.9903    0.0000 C   0  0  0  0  0  0  0  0  0  0  0  0
   15.7364    8.3903    0.0000 C   0  0  0  0  0  0  0  0  0  0  0  0
   14.5240    9.0903    0.0000 C   0  0  0  0  0  0  0  0  0  0  0  0
   13.3115    8.3903    0.0000 C   0  0  0  0  0  0  0  0  0  0  0  0
   16.9446    9.0879    0.0000 F   0  0  0  0  0  0  0  0  0  0  0  0
   16.9446    6.2927    0.0000 Cl  0  0  0  0  0  0  0  0  0  0  0  0
    7.2578    4.8951    0.0000 N   0  0  0  0  0  0  0  0  0  0  0  0
    7.2578    2.1000    0.0000 O   0  0  0  0  0  0  0  0  0  0  0  0
    6.0496    2.7976    0.0000 C   0  0  0  0  0  0  0  0  0  0  0  0
    4.8413    2.1000    0.0000 C   0  0  0  0  0  0  0  0  0  0  0  0
    3.6331    2.7976    0.0000 C   0  0  0  0  0  0  0  0  0  0  0  0
    2.4249    2.1000    0.0000 N   0  0  0  0  0  0  0  0  0  0  0  0
    7.2578    6.2903    0.0000 C   0  0  0  0  0  0  0  0  0  0  0  0
    6.0496    6.9879    0.0000 C   0  0  0  0  0  0  0  0  0  0  0  0
    8.4660    6.9879    0.0000 O   0  0  0  0  0  0  0  0  0  0  0  0
    4.8413    6.2903    0.0000 C   0  0  0  0  0  0  0  0  0  0  0  0
    1.2124    2.8000    0.0000 C   0  0  0  0  0  0  0  0  0  0  0  0
    0.0000    2.1000    0.0000 C   0  0  0  0  0  0  0  0  0  0  0  0
    0.0000    0.7000    0.0000 O   0  0  0  0  0  0  0  0  0  0  0  0
    1.2124    0.0000    0.0000 C   0  0  0  0  0  0  0  0  0  0  0  0
    2.4249    0.7000    0.0000 C   0  0  0  0  0  0  0  0  0  0  0  0
  1  2  2  0  0  0  0
  2  3  1  0  0  0  0
  3  4  2  0  0  0  0
  4  5  1  0  0  0  0
  5  6  2  0  0  0  0
  6  1  1  0  0  0  0
  4  7  1  0  0  0  0
  7  8  2  0  0  0  0
  8  9  1  0  0  0  0
  9 10  2  0  0  0  0
 10  5  1  0  0  0  0
 10 11  1  0  0  0  0
 11 12  1  0  0  0  0
 12 13  2  0  0  0  0
 13 14  1  0  0  0  0
 14 15  2  0  0  0  0
 15 16  1  0  0  0  0
 16 17  2  0  0  0  0
 17 12  1  0  0  0  0
 15 18  1  0  0  0  0
 14 19  1  0  0  0  0
  1 20  1  0  0  0  0
  2 21  1  0  0  0  0
 21 22  1  0  0  0  0
 22 23  1  0  0  0  0
 23 24  1  0  0  0  0
 24 25  1  0  0  0  0
 20 26  1  0  0  0  0
 26 27  1  0  0  0  0
 26 28  2  0  0  0  0
 27 29  2  0  0  0  0
 25 30  1  0  0  0  0
 30 31  1  0  0  0  0
 31 32  1  0  0  0  0
 32 33  1  0  0  0  0
 33 34  1  0  0  0  0
 34 25  1  0  0  0  0
M  END
>  <Mol_ID> (313)
2244

>  <Formula> (313)
C24H25ClFN5O3

>  <MolWeight> (313)
485.9384032

>  <Cat> (313)
S1019

>  <Name> (313)
CI-1033 (Canertinib)

>  <Synonyms> (313)
PD-183805 

>  <Target> (313)
EGFR, HER2

>  <Form> (313)
Free Base

>  <CAS> (313)
267243-28-7

>  <URL> (313)
http://www.selleckchem.com/products/CI-1033(Canertinib).html

$$$$
untitled.cdx
csChFnd80/05071909292D

 41 45  0  0  0  0  0  0  0  0999 V2000
    8.4660    4.1976    0.0000 C   0  0  0  0  0  0  0  0  0  0  0  0
    8.4660    2.7976    0.0000 C   0  0  0  0  0  0  0  0  0  0  0  0
    9.6784    2.0976    0.0000 C   0  0  0  0  0  0  0  0  0  0  0  0
   10.8909    2.7976    0.0000 C   0  0  0  0  0  0  0  0  0  0  0  0
   10.8909    4.1976    0.0000 C   0  0  0  0  0  0  0  0  0  0  0  0
    9.6784    4.8976    0.0000 C   0  0  0  0  0  0  0  0  0  0  0  0
   12.1033    4.8976    0.0000 C   0  0  0  0  0  0  0  0  0  0  0  0
   12.1033    6.2976    0.0000 N   0  0  0  0  0  0  0  0  0  0  0  0
   10.8909    6.9976    0.0000 C   0  0  0  0  0  0  0  0  0  0  0  0
    9.6784    6.2976    0.0000 N   0  0  0  0  0  0  0  0  0  0  0  0
    9.6784    0.7024    0.0000 O   0  0  0  0  0  0  0  0  0  0  0  0
   10.8867    0.0049    0.0000 C   0  0  0  0  0  0  0  0  0  0  0  0
   13.3115    4.2000    0.0000 N   0  0  0  0  0  0  0  0  0  0  0  0
   13.3115    2.8000    0.0000 C   0  0  0  0  0  0  0  0  0  0  0  0
   14.5240    2.1000    0.0000 C   0  0  0  0  0  0  0  0  0  0  0  0
   15.7364    2.8000    0.0000 N   0  0  0  0  0  0  0  0  0  0  0  0
   15.7364    4.2000    0.0000 C   0  0  0  0  0  0  0  0  0  0  0  0
   14.5240    4.9000    0.0000 C   0  0  0  0  0  0  0  0  0  0  0  0
   16.9446    2.1024    0.0000 C   0  0  0  0  0  0  0  0  0  0  0  0
   18.1529    2.8000    0.0000 N   0  0  0  0  0  0  0  0  0  0  0  0
   16.9446    0.7073    0.0000 O   0  0  0  0  0  0  0  0  0  0  0  0
   19.3611    2.1024    0.0000 C   0  0  0  0  0  0  0  0  0  0  0  0
   19.3611    0.7024    0.0000 C   0  0  0  0  0  0  0  0  0  0  0  0
   20.5735    0.0024    0.0000 C   0  0  0  0  0  0  0  0  0  0  0  0
   21.7860    0.7024    0.0000 C   0  0  0  0  0  0  0  0  0  0  0  0
   21.7860    2.1024    0.0000 C   0  0  0  0  0  0  0  0  0  0  0  0
   20.5735    2.8024    0.0000 C   0  0  0  0  0  0  0  0  0  0  0  0
   22.9942    0.0049    0.0000 O   0  0  0  0  0  0  0  0  0  0  0  0
   24.2024    0.7024    0.0000 C   0  0  0  0  0  0  0  0  0  0  0  0
   25.4106    0.0049    0.0000 C   0  0  0  0  0  0  0  0  0  0  0  0
   24.2024    2.0976    0.0000 C   0  0  0  0  0  0  0  0  0  0  0  0
    7.2578    2.1000    0.0000 O   0  0  0  0  0  0  0  0  0  0  0  0
    6.0496    2.7976    0.0000 C   0  0  0  0  0  0  0  0  0  0  0  0
    4.8413    2.1000    0.0000 C   0  0  0  0  0  0  0  0  0  0  0  0
    3.6331    2.7976    0.0000 C   0  0  0  0  0  0  0  0  0  0  0  0
    2.4249    2.1000    0.0000 N   0  0  0  0  0  0  0  0  0  0  0  0
    1.2124    2.8000    0.0000 C   0  0  0  0  0  0  0  0  0  0  0  0
    0.0000    2.1000    0.0000 C   0  0  0  0  0  0  0  0  0  0  0  0
    0.0000    0.7000    0.0000 C   0  0  0  0  0  0  0  0  0  0  0  0
    1.2124    0.0000    0.0000 C   0  0  0  0  0  0  0  0  0  0  0  0
    2.4249    0.7000    0.0000 C   0  0  0  0  0  0  0  0  0  0  0  0
  1  2  2  0  0  0  0
  2  3  1  0  0  0  0
  3  4  2  0  0  0  0
  4  5  1  0  0  0  0
  5  6  2  0  0  0  0
  6  1  1  0  0  0  0
  5  7  1  0  0  0  0
  7  8  2  0  0  0  0
  8  9  1  0  0  0  0
  9 10  2  0  0  0  0
 10  6  1  0  0  0  0
  3 11  1  0  0  0  0
 11 12  1  0  0  0  0
  7 13  1  0  0  0  0
 13 14  1  0  0  0  0
 14 15  1  0  0  0  0
 15 16  1  0  0  0  0
 16 17  1  0  0  0  0
 17 18  1  0  0  0  0
 18 13  1  0  0  0  0
 16 19  1  0  0  0  0
 19 20  1  0  0  0  0
 19 21  2  0  0  0  0
 20 22  1  0  0  0  0
 22 23  2  0  0  0  0
 23 24  1  0  0  0  0
 24 25  2  0  0  0  0
 25 26  1  0  0  0  0
 26 27  2  0  0  0  0
 27 22  1  0  0  0  0
 25 28  1  0  0  0  0
 28 29  1  0  0  0  0
 29 30  1  0  0  0  0
 29 31  1  0  0  0  0
  2 32  1  0  0  0  0
 32 33  1  0  0  0  0
 33 34  1  0  0  0  0
 34 35  1  0  0  0  0
 35 36  1  0  0  0  0
 36 37  1  0  0  0  0
 37 38  1  0  0  0  0
 38 39  1  0  0  0  0
 39 40  1  0  0  0  0
 40 41  1  0  0  0  0
 41 36  1  0  0  0  0
M  END
>  <Mol_ID> (314)
2246

>  <Formula> (314)
C31H42N6O4

>  <MolWeight> (314)
562.70298

>  <Cat> (314)
S1043

>  <Name> (314)
Tandutinib (MLN518)

>  <Synonyms> (314)
CT53518

>  <Target> (314)
Flt

>  <Form> (314)
Free Base

>  <CAS> (314)
387867-13-2

>  <URL> (314)
http://www.selleckchem.com/products/Tandutinib-(MLN518).html

$$$$
untitled.cdx
csChFnd80/05071909292D

 30 33  0  0  0  0  0  0  0  0999 V2000
    9.6827    6.2927    0.0000 C   0  0  0  0  0  0  0  0  0  0  0  0
    9.6827    4.8927    0.0000 C   0  0  0  0  0  0  0  0  0  0  0  0
   10.8951    4.1927    0.0000 C   0  0  0  0  0  0  0  0  0  0  0  0
   12.1075    4.8927    0.0000 N   0  0  0  0  0  0  0  0  0  0  0  0
   12.1075    6.2927    0.0000 C   0  0  0  0  0  0  0  0  0  0  0  0
   10.8951    6.9927    0.0000 N   0  0  0  0  0  0  0  0  0  0  0  0
    8.4702    6.9927    0.0000 C   0  0  0  0  0  0  0  0  0  0  0  0
    7.2578    6.2927    0.0000 C   0  0  0  0  0  0  0  0  0  0  0  0
    7.2578    4.8927    0.0000 C   0  0  0  0  0  0  0  0  0  0  0  0
    8.4702    4.1927    0.0000 C   0  0  0  0  0  0  0  0  0  0  0  0
    6.0496    6.9903    0.0000 O   0  0  0  0  0  0  0  0  0  0  0  0
    6.0496    4.1951    0.0000 O   0  0  0  0  0  0  0  0  0  0  0  0
    4.8413    6.2927    0.0000 C   0  0  0  0  0  0  0  0  0  0  0  0
    4.8413    4.8927    0.0000 C   0  0  0  0  0  0  0  0  0  0  0  0
    3.6331    6.9903    0.0000 C   0  0  0  0  0  0  0  0  0  0  0  0
    3.6331    8.3903    0.0000 C   0  0  0  0  0  0  0  0  0  0  0  0
    2.4207    9.0903    0.0000 C   0  0  0  0  0  0  0  0  0  0  0  0
    1.2082    8.3903    0.0000 N   0  0  0  0  0  0  0  0  0  0  0  0
    1.2082    6.9903    0.0000 C   0  0  0  0  0  0  0  0  0  0  0  0
    2.4207    6.2903    0.0000 C   0  0  0  0  0  0  0  0  0  0  0  0
    0.0000    9.0879    0.0000 C   0  0  0  0  0  0  0  0  0  0  0  0
   10.8951    2.7976    0.0000 N   0  0  0  0  0  0  0  0  0  0  0  0
   12.1033    2.1000    0.0000 C   0  0  0  0  0  0  0  0  0  0  0  0
   12.1033    0.7000    0.0000 C   0  0  0  0  0  0  0  0  0  0  0  0
   13.3157    0.0000    0.0000 C   0  0  0  0  0  0  0  0  0  0  0  0
   14.5282    0.7000    0.0000 C   0  0  0  0  0  0  0  0  0  0  0  0
   14.5282    2.1000    0.0000 C   0  0  0  0  0  0  0  0  0  0  0  0
   13.3157    2.8000    0.0000 C   0  0  0  0  0  0  0  0  0  0  0  0
   10.8951    0.0024    0.0000 F   0  0  0  0  0  0  0  0  0  0  0  0
   15.7364    0.0024    0.0000 Br  0  0  0  0  0  0  0  0  0  0  0  0
  1  2  2  0  0  0  0
  2  3  1  0  0  0  0
  3  4  2  0  0  0  0
  4  5  1  0  0  0  0
  5  6  2  0  0  0  0
  6  1  1  0  0  0  0
  1  7  1  0  0  0  0
  7  8  2  0  0  0  0
  8  9  1  0  0  0  0
  9 10  2  0  0  0  0
 10  2  1  0  0  0  0
  8 11  1  0  0  0  0
  9 12  1  0  0  0  0
 11 13  1  0  0  0  0
 12 14  1  0  0  0  0
 13 15  1  0  0  0  0
 15 16  1  0  0  0  0
 16 17  1  0  0  0  0
 17 18  1  0  0  0  0
 18 19  1  0  0  0  0
 19 20  1  0  0  0  0
 20 15  1  0  0  0  0
 18 21  1  0  0  0  0
  3 22  1  0  0  0  0
 22 23  1  0  0  0  0
 23 24  2  0  0  0  0
 24 25  1  0  0  0  0
 25 26  2  0  0  0  0
 26 27  1  0  0  0  0
 27 28  2  0  0  0  0
 28 23  1  0  0  0  0
 24 29  1  0  0  0  0
 26 30  1  0  0  0  0
M  END
>  <Mol_ID> (315)
2247

>  <Formula> (315)
C22H24BrFN4O2

>  <MolWeight> (315)
475.3539632

>  <Cat> (315)
S1046

>  <Name> (315)
Vandetanib (ZD6474)

>  <Synonyms> (315)
N/A

>  <Target> (315)
VEGFR

>  <Form> (315)
Free Base

>  <CAS> (315)
443913-73-3

>  <URL> (315)
http://www.selleckchem.com/products/Vandetanib.html

$$$$
untitled.cdx
csChFnd80/05071909292D

 27 26  0  0  0  0  0  0  0  0999 V2000
   23.5990    4.5249    0.0000 N   0  3  0  0  0  0  0  0  0  0  0  0
   22.8990    3.3124    0.0000 C   0  0  0  0  0  0  0  0  0  0  0  0
   21.4990    3.3124    0.0000 C   0  0  0  0  0  0  0  0  0  0  0  0
   24.8114    3.8249    0.0000 C   0  0  0  0  0  0  0  0  0  0  0  0
   22.3865    5.2249    0.0000 C   0  0  0  0  0  0  0  0  0  0  0  0
   24.2990    5.7373    0.0000 C   0  0  0  0  0  0  0  0  0  0  0  0
   20.7990    2.1000    0.0000 O   0  0  0  0  0  0  0  0  0  0  0  0
   19.3990    2.1000    0.0000 P   0  0  3  0  0  0  0  0  0  0  0  0
   17.9990    2.1000    0.0000 O   0  0  0  0  0  0  0  0  0  0  0  0
   19.3990    3.5000    0.0000 O   0  5  0  0  0  0  0  0  0  0  0  0
   19.3990    0.7000    0.0000 O   0  0  0  0  0  0  0  0  0  0  0  0
   18.1865    0.0000    0.0000 C   0  0  0  0  0  0  0  0  0  0  0  0
   16.9741    0.7000    0.0000 C   0  0  0  0  0  0  0  0  0  0  0  0
   15.7617    0.0000    0.0000 C   0  0  0  0  0  0  0  0  0  0  0  0
   14.5492    0.7000    0.0000 C   0  0  0  0  0  0  0  0  0  0  0  0
   13.3368    0.0000    0.0000 C   0  0  0  0  0  0  0  0  0  0  0  0
   12.1244    0.7000    0.0000 C   0  0  0  0  0  0  0  0  0  0  0  0
   10.9119    0.0000    0.0000 C   0  0  0  0  0  0  0  0  0  0  0  0
    9.6995    0.7000    0.0000 C   0  0  0  0  0  0  0  0  0  0  0  0
    8.4870    0.0000    0.0000 C   0  0  0  0  0  0  0  0  0  0  0  0
    7.2746    0.7000    0.0000 C   0  0  0  0  0  0  0  0  0  0  0  0
    6.0622    0.0000    0.0000 C   0  0  0  0  0  0  0  0  0  0  0  0
    4.8497    0.7000    0.0000 C   0  0  0  0  0  0  0  0  0  0  0  0
    3.6373    0.0000    0.0000 C   0  0  0  0  0  0  0  0  0  0  0  0
    2.4249    0.7000    0.0000 C   0  0  0  0  0  0  0  0  0  0  0  0
    1.2124    0.0000    0.0000 C   0  0  0  0  0  0  0  0  0  0  0  0
    0.0000    0.7000    0.0000 C   0  0  0  0  0  0  0  0  0  0  0  0
  2  3  1  0  0  0  0
  1  2  1  0  0  0  0
  1  4  1  0  0  0  0
  1  5  1  0  0  0  0
  1  6  1  0  0  0  0
  8  9  2  0  0  0  0
  8 10  1  0  0  0  0
 12 13  1  0  0  0  0
 13 14  1  0  0  0  0
 14 15  1  0  0  0  0
 15 16  1  0  0  0  0
 16 17  1  0  0  0  0
 17 18  1  0  0  0  0
 18 19  1  0  0  0  0
 19 20  1  0  0  0  0
 20 21  1  0  0  0  0
 21 22  1  0  0  0  0
 22 23  1  0  0  0  0
 23 24  1  0  0  0  0
 24 25  1  0  0  0  0
 25 26  1  0  0  0  0
 26 27  1  0  0  0  0
 11 12  1  0  0  0  0
  8 11  1  0  0  0  0
  7  8  1  0  0  0  0
  3  7  1  0  0  0  0
M  END
>  <Mol_ID> (316)
2251

>  <Formula> (316)
C21H46NO4P

>  <MolWeight> (316)
407.568001

>  <Cat> (316)
S3056

>  <Name> (316)
Miltefosine (Hexadecylphosphocholine)

>  <Synonyms> (316)
N/A

>  <Target> (316)
Akt

>  <Form> (316)
Free Base

>  <CAS> (316)
58066-85-6

>  <URL> (316)
http://www.selleckchem.com/products/miltefosine-hexadecylphosphocholine.html

$$$$
NU7026.cdx
csChFnd80/05071909292D

 21 24  0  0  0  0  0  0  0  0999 V2000
    4.8637    4.8943    0.0000 C   0  0  0  0  0  0  0  0  0  0  0  0
    3.6473    2.7999    0.0000 C   0  0  0  0  0  0  0  0  0  0  0  0
    3.6478    4.2000    0.0000 O   0  0  0  0  0  0  0  0  0  0  0  0
    6.0788    4.1885    0.0000 C   0  0  0  0  0  0  0  0  0  0  0  0
    4.8625    2.0942    0.0000 C   0  0  0  0  0  0  0  0  0  0  0  0
    6.0782    2.7885    0.0000 C   0  0  0  0  0  0  0  0  0  0  0  0
    4.8643    6.2946    0.0000 N   0  0  0  0  0  0  0  0  0  0  0  0
    2.4315    2.1057    0.0000 C   0  0  0  0  0  0  0  0  0  0  0  0
    4.8618    0.6942    0.0000 C   0  0  0  0  0  0  0  0  0  0  0  0
    7.2804    2.0902    0.0000 O   0  0  0  0  0  0  0  0  0  0  0  0
    2.4310    0.7058    0.0000 C   0  0  0  0  0  0  0  0  0  0  0  0
    3.6462    0.0000    0.0000 C   0  0  0  0  0  0  0  0  0  0  0  0
    4.8648    9.0856    0.0000 O   0  0  0  0  0  0  0  0  0  0  0  0
    3.6560    6.9922    0.0000 C   0  0  0  0  0  0  0  0  0  0  0  0
    6.0724    6.9921    0.0000 C   0  0  0  0  0  0  0  0  0  0  0  0
    1.2163    2.8115    0.0000 C   0  0  0  0  0  0  0  0  0  0  0  0
    3.6560    8.3877    0.0000 C   0  0  0  0  0  0  0  0  0  0  0  0
    6.0738    8.3876    0.0000 C   0  0  0  0  0  0  0  0  0  0  0  0
    1.2281    0.0040    0.0000 C   0  0  0  0  0  0  0  0  0  0  0  0
    0.0007    2.1173    0.0000 C   0  0  0  0  0  0  0  0  0  0  0  0
    0.0000    0.7173    0.0000 C   0  0  0  0  0  0  0  0  0  0  0  0
  3  1  1  0  0  0  0
  4  1  2  0  0  0  0
  7  1  1  0  0  0  0
  2  3  1  0  0  0  0
  5  2  2  0  0  0  0
  8  2  1  0  0  0  0
  6  4  1  0  0  0  0
  9  5  1  0  0  0  0
  6  5  1  0  0  0  0
 10  6  2  0  0  0  0
 14  7  1  0  0  0  0
 15  7  1  0  0  0  0
 11  8  2  0  0  0  0
 16  8  1  0  0  0  0
 12  9  2  0  0  0  0
 12 11  1  0  0  0  0
 19 11  1  0  0  0  0
 13 17  1  0  0  0  0
 13 18  1  0  0  0  0
 17 14  1  0  0  0  0
 18 15  1  0  0  0  0
 20 16  2  0  0  0  0
 21 19  2  0  0  0  0
 21 20  1  0  0  0  0
M  END
>  <Mol_ID> (317)
2256

>  <Formula> (317)
C17H15NO3

>  <MolWeight> (317)
281.3059

>  <Cat> (317)
S2893

>  <Name> (317)
NU7026

>  <Synonyms> (317)
N/A

>  <Target> (317)
DNA-PK

>  <Form> (317)
Free Base

>  <CAS> (317)
154447-35-5

>  <URL> (317)
http://www.selleckchem.com/products/nu7026.html

$$$$
pim inhibitor I(SMI-4a).cdx
csChFnd80/05071909292D

 18 19  0  0  0  0  0  0  0  0999 V2000
    2.4641    2.6922    0.0000 S   0  0  0  0  0  0  0  0  0  0  0  0
    1.1326    3.1249    0.0000 C   0  0  0  0  0  0  0  0  0  0  0  0
    1.1326    4.5249    0.0000 N   0  0  0  0  0  0  0  0  0  0  0  0
    2.4641    4.9575    0.0000 C   0  0  0  0  0  0  0  0  0  0  0  0
    3.2870    3.8249    0.0000 C   0  0  0  0  0  0  0  0  0  0  0  0
    0.0000    2.3020    0.0000 O   0  0  0  0  0  0  0  0  0  0  0  0
    2.8967    6.2890    0.0000 O   0  0  0  0  0  0  0  0  0  0  0  0
    4.6870    3.8249    0.0000 C   0  0  0  0  0  0  0  0  0  0  0  0
    5.3870    2.6124    0.0000 C   0  0  0  0  0  0  0  0  0  0  0  0
    6.7870    2.6124    0.0000 C   0  0  0  0  0  0  0  0  0  0  0  0
    7.4870    1.4000    0.0000 C   0  0  0  0  0  0  0  0  0  0  0  0
    6.7870    0.1876    0.0000 C   0  0  0  0  0  0  0  0  0  0  0  0
    5.3870    0.1876    0.0000 C   0  0  0  0  0  0  0  0  0  0  0  0
    4.6870    1.4000    0.0000 C   0  0  0  0  0  0  0  0  0  0  0  0
    8.8870    1.4000    0.0000 C   0  0  0  0  0  0  0  0  0  0  0  0
    8.8870    2.8000    0.0000 F   0  0  0  0  0  0  0  0  0  0  0  0
   10.2870    1.4000    0.0000 F   0  0  0  0  0  0  0  0  0  0  0  0
    8.8870    0.0000    0.0000 F   0  0  0  0  0  0  0  0  0  0  0  0
  1  2  1  0  0  0  0
  2  3  1  0  0  0  0
  3  4  1  0  0  0  0
  4  5  1  0  0  0  0
  1  5  1  0  0  0  0
  2  6  2  0  0  0  0
  4  7  2  0  0  0  0
  8  9  1  0  0  0  0
  9 10  1  0  0  0  0
 10 11  2  0  0  0  0
 11 12  1  0  0  0  0
 12 13  2  0  0  0  0
 13 14  1  0  0  0  0
  9 14  2  0  0  0  0
 15 16  1  0  0  0  0
 15 17  1  0  0  0  0
 15 18  1  0  0  0  0
 11 15  1  0  0  0  0
  5  8  2  0  0  0  0
M  END
>  <Mol_ID> (318)
2271

>  <Formula> (318)
C11H6F3NO2S

>  <MolWeight> (318)
273.2310496

>  <Cat> (318)
S8005

>  <Name> (318)
SMI-4a

>  <Synonyms> (318)
N/A

>  <Target> (318)
Pim

>  <Form> (318)
Free Base

>  <CAS> (318)
438190-29-5

>  <URL> (318)
http://www.selleckchem.com/products/smi-4a.html

$$$$
VE-821.cdx
csChFnd80/05071909292D

 26 28  0  0  0  0  0  0  0  0999 V2000
    4.8497    4.9000    0.0000 C   0  0  0  0  0  0  0  0  0  0  0  0
    4.8497    6.3000    0.0000 C   0  0  0  0  0  0  0  0  0  0  0  0
    6.0622    4.2000    0.0000 N   0  0  0  0  0  0  0  0  0  0  0  0
    6.0622    7.0000    0.0000 N   0  0  0  0  0  0  0  0  0  0  0  0
    7.2746    6.3000    0.0000 C   0  0  0  0  0  0  0  0  0  0  0  0
    7.2746    4.9000    0.0000 C   0  0  0  0  0  0  0  0  0  0  0  0
    3.6373    4.2000    0.0000 C   0  0  0  0  0  0  0  0  0  0  0  0
    2.4249    4.9000    0.0000 O   0  0  0  0  0  0  0  0  0  0  0  0
    3.6373    2.8000    0.0000 N   0  0  0  0  0  0  0  0  0  0  0  0
    2.4249    2.1000    0.0000 C   0  0  0  0  0  0  0  0  0  0  0  0
    2.4249    0.7000    0.0000 C   0  0  0  0  0  0  0  0  0  0  0  0
    1.2124    0.0000    0.0000 C   0  0  0  0  0  0  0  0  0  0  0  0
    0.0000    0.7000    0.0000 C   0  0  0  0  0  0  0  0  0  0  0  0
    0.0000    2.1000    0.0000 C   0  0  0  0  0  0  0  0  0  0  0  0
    1.2124    2.8000    0.0000 C   0  0  0  0  0  0  0  0  0  0  0  0
    8.4870    4.2000    0.0000 C   0  0  0  0  0  0  0  0  0  0  0  0
    9.6995    4.9000    0.0000 C   0  0  0  0  0  0  0  0  0  0  0  0
   10.9119    4.2000    0.0000 C   0  0  0  0  0  0  0  0  0  0  0  0
   10.9119    2.8000    0.0000 C   0  0  0  0  0  0  0  0  0  0  0  0
    9.6995    2.1000    0.0000 C   0  0  0  0  0  0  0  0  0  0  0  0
    8.4870    2.8000    0.0000 C   0  0  0  0  0  0  0  0  0  0  0  0
   12.1244    2.1000    0.0000 S   0  0  0  0  0  0  0  0  0  0  0  0
   11.4244    0.8876    0.0000 O   0  0  0  0  0  0  0  0  0  0  0  0
   12.8244    3.3124    0.0000 O   0  0  0  0  0  0  0  0  0  0  0  0
   13.3368    1.4000    0.0000 C   0  0  0  0  0  0  0  0  0  0  0  0
    3.6373    7.0000    0.0000 N   0  0  0  0  0  0  0  0  0  0  0  0
  1  2  1  0  0  0  0
  1  3  2  0  0  0  0
  2  4  2  0  0  0  0
  4  5  1  0  0  0  0
  5  6  2  0  0  0  0
  3  6  1  0  0  0  0
  7  8  2  0  0  0  0
  7  9  1  0  0  0  0
  1  7  1  0  0  0  0
 10 11  1  0  0  0  0
 11 12  2  0  0  0  0
 12 13  1  0  0  0  0
 13 14  2  0  0  0  0
 14 15  1  0  0  0  0
 10 15  2  0  0  0  0
  9 10  1  0  0  0  0
 16 17  1  0  0  0  0
 17 18  2  0  0  0  0
 18 19  1  0  0  0  0
 19 20  2  0  0  0  0
 20 21  1  0  0  0  0
 16 21  2  0  0  0  0
 22 23  2  0  0  0  0
 22 24  2  0  0  0  0
 22 25  1  0  0  0  0
 19 22  1  0  0  0  0
  6 16  1  0  0  0  0
  2 26  1  0  0  0  0
M  END
>  <Mol_ID> (319)
2272

>  <Formula> (319)
C18H16N4O3S

>  <MolWeight> (319)
368.40964

>  <Cat> (319)
S8007

>  <Name> (319)
VE-821

>  <Synonyms> (319)
N/A

>  <Target> (319)
ATM/ATR

>  <Form> (319)
Free Base

>  <CAS> (319)
1232410-49-9

>  <URL> (319)
http://www.selleckchem.com/products/ve-821.html

$$$$
GSK2636771.cdx
csChFnd80/05071909292D

 31 34  0  0  0  0  0  0  0  0999 V2000
    3.6458    9.2073    0.0000 C   0  0  0  0  0  0  0  0  0  0  0  0
    3.6458    7.8024    0.0000 C   0  0  0  0  0  0  0  0  0  0  0  0
    4.8624    7.0999    0.0000 C   0  0  0  0  0  0  0  0  0  0  0  0
    6.0791    7.8024    0.0000 C   0  0  0  0  0  0  0  0  0  0  0  0
    6.0791    9.2073    0.0000 C   0  0  0  0  0  0  0  0  0  0  0  0
    4.8624    9.9097    0.0000 C   0  0  0  0  0  0  0  0  0  0  0  0
    7.4152    7.3683    0.0000 N   0  0  0  0  0  0  0  0  0  0  0  0
    8.2409    8.5048    0.0000 C   0  0  0  0  0  0  0  0  0  0  0  0
    7.4152    9.6414    0.0000 N   0  0  0  0  0  0  0  0  0  0  0  0
    9.6409    8.5048    0.0000 C   0  0  0  0  0  0  0  0  0  0  0  0
    7.8478    6.0368    0.0000 C   0  0  0  0  0  0  0  0  0  0  0  0
    6.8579    5.0468    0.0000 C   0  0  0  0  0  0  0  0  0  0  0  0
    5.5056    5.4092    0.0000 C   0  0  0  0  0  0  0  0  0  0  0  0
    4.5156    4.4192    0.0000 C   0  0  0  0  0  0  0  0  0  0  0  0
    4.8780    3.0669    0.0000 C   0  0  0  0  0  0  0  0  0  0  0  0
    6.2303    2.7046    0.0000 C   0  0  0  0  0  0  0  0  0  0  0  0
    7.2202    3.6945    0.0000 C   0  0  0  0  0  0  0  0  0  0  0  0
    8.5725    3.3322    0.0000 C   0  0  0  0  0  0  0  0  0  0  0  0
    6.5926    1.3523    0.0000 C   0  0  0  0  0  0  0  0  0  0  0  0
    5.2403    0.9899    0.0000 F   0  0  0  0  0  0  0  0  0  0  0  0
    7.9449    1.7146    0.0000 F   0  0  0  0  0  0  0  0  0  0  0  0
    6.9549    0.0000    0.0000 F   0  0  0  0  0  0  0  0  0  0  0  0
    2.4333    7.1024    0.0000 N   0  0  0  0  0  0  0  0  0  0  0  0
    4.8624   11.3097    0.0000 C   0  0  0  0  0  0  0  0  0  0  0  0
    3.6500   12.0097    0.0000 O   0  0  0  0  0  0  0  0  0  0  0  0
    6.0748   12.0097    0.0000 O   0  0  0  0  0  0  0  0  0  0  0  0
    1.2167    7.8048    0.0000 C   0  0  0  0  0  0  0  0  0  0  0  0
    0.0000    7.1024    0.0000 C   0  0  0  0  0  0  0  0  0  0  0  0
    0.0000    5.6975    0.0000 O   0  0  0  0  0  0  0  0  0  0  0  0
    1.2167    4.9951    0.0000 C   0  0  0  0  0  0  0  0  0  0  0  0
    2.4333    5.6975    0.0000 C   0  0  0  0  0  0  0  0  0  0  0  0
  1  2  2  0  0  0  0
  2  3  1  0  0  0  0
  3  4  2  0  0  0  0
  4  5  1  0  0  0  0
  5  6  2  0  0  0  0
  6  1  1  0  0  0  0
  4  7  1  0  0  0  0
  7  8  1  0  0  0  0
  8  9  2  0  0  0  0
  9  5  1  0  0  0  0
  8 10  1  0  0  0  0
  7 11  1  0  0  0  0
 11 12  1  0  0  0  0
 12 13  2  0  0  0  0
 13 14  1  0  0  0  0
 14 15  2  0  0  0  0
 15 16  1  0  0  0  0
 16 17  2  0  0  0  0
 17 12  1  0  0  0  0
 17 18  1  0  0  0  0
 16 19  1  0  0  0  0
 19 20  1  0  0  0  0
 19 21  1  0  0  0  0
 19 22  1  0  0  0  0
  2 23  1  0  0  0  0
  6 24  1  0  0  0  0
 24 25  2  0  0  0  0
 24 26  1  0  0  0  0
 23 27  1  0  0  0  0
 27 28  1  0  0  0  0
 28 29  1  0  0  0  0
 29 30  1  0  0  0  0
 30 31  1  0  0  0  0
 31 23  1  0  0  0  0
M  END
>  <Mol_ID> (320)
2275

>  <Formula> (320)
C22H22F3N3O3

>  <MolWeight> (320)
433.4235896

>  <Cat> (320)
S8002

>  <Name> (320)
GSK2636771

>  <Synonyms> (320)
N/A

>  <Target> (320)
PI3K

>  <Form> (320)
Free Base

>  <CAS> (320)
1372540-25-4

>  <URL> (320)
http://www.selleckchem.com/products/gsk2636771.html

$$$$
PQ 401.cdx
csChFnd80/05071909292D

 24 26  0  0  0  0  0  0  0  0999 V2000
    6.0588    4.1953    0.0000 N   0  0  0  0  0  0  0  0  0  0  0  0
    4.8505    4.8929    0.0000 C   0  0  0  0  0  0  0  0  0  0  0  0
    4.8505    6.2880    0.0000 O   0  0  0  0  0  0  0  0  0  0  0  0
    3.6423    4.1953    0.0000 N   0  0  0  0  0  0  0  0  0  0  0  0
    3.6363    0.0002    0.0000 N   0  0  0  0  0  0  0  0  0  0  0  0
    4.8492    0.6976    0.0000 C   0  0  0  0  0  0  0  0  0  0  0  0
    4.8517    2.0984    0.0000 C   0  0  0  0  0  0  0  0  0  0  0  0
    3.6423    2.8002    0.0000 C   0  0  0  0  0  0  0  0  0  0  0  0
    2.4269    2.1019    0.0000 C   0  0  0  0  0  0  0  0  0  0  0  0
    1.2154    2.8036    0.0000 C   0  0  0  0  0  0  0  0  0  0  0  0
    0.0020    2.1054    0.0000 C   0  0  0  0  0  0  0  0  0  0  0  0
    0.0000    0.7054    0.0000 C   0  0  0  0  0  0  0  0  0  0  0  0
    1.2114    0.0036    0.0000 C   0  0  0  0  0  0  0  0  0  0  0  0
    2.4249    0.7019    0.0000 C   0  0  0  0  0  0  0  0  0  0  0  0
    6.0575    0.0000    0.0000 C   0  0  0  0  0  0  0  0  0  0  0  0
    7.2670    4.8929    0.0000 C   0  0  0  0  0  0  0  0  0  0  0  0
    8.4794    4.1929    0.0000 C   0  0  0  0  0  0  0  0  0  0  0  0
    9.6919    4.8929    0.0000 C   0  0  0  0  0  0  0  0  0  0  0  0
    9.6919    6.2929    0.0000 C   0  0  0  0  0  0  0  0  0  0  0  0
    8.4794    6.9929    0.0000 C   0  0  0  0  0  0  0  0  0  0  0  0
    7.2670    6.2929    0.0000 C   0  0  0  0  0  0  0  0  0  0  0  0
    8.4794    8.3880    0.0000 Cl  0  0  0  0  0  0  0  0  0  0  0  0
    8.4794    2.7977    0.0000 O   0  0  0  0  0  0  0  0  0  0  0  0
    9.6877    2.1002    0.0000 C   0  0  0  0  0  0  0  0  0  0  0  0
  1  2  1  0  0  0  0
  2  3  2  0  0  0  0
  2  4  1  0  0  0  0
  5  6  1  0  0  0  0
  6  7  2  0  0  0  0
  7  8  1  0  0  0  0
  8  9  2  0  0  0  0
  9 10  1  0  0  0  0
 10 11  2  0  0  0  0
 11 12  1  0  0  0  0
 12 13  2  0  0  0  0
 13 14  1  0  0  0  0
  5 14  2  0  0  0  0
  9 14  1  0  0  0  0
  6 15  1  0  0  0  0
  4  8  1  0  0  0  0
  1 16  1  0  0  0  0
 16 17  2  0  0  0  0
 17 18  1  0  0  0  0
 18 19  2  0  0  0  0
 19 20  1  0  0  0  0
 20 21  2  0  0  0  0
 21 16  1  0  0  0  0
 20 22  1  0  0  0  0
 17 23  1  0  0  0  0
 23 24  1  0  0  0  0
M  END
>  <Mol_ID> (321)
2277

>  <Formula> (321)
C18H16ClN3O2

>  <MolWeight> (321)
341.79154

>  <Cat> (321)
S8003

>  <Name> (321)
PQ 401

>  <Synonyms> (321)
N/A

>  <Target> (321)
IGF-1R

>  <Form> (321)
Free Base

>  <CAS> (321)
196868-63-0

>  <URL> (321)
http://www.selleckchem.com/products/pq-401.html

$$$$
AG 18.cdx
csChFnd80/05071909292D

 14 14  0  0  0  0  0  0  0  0999 V2000
    3.6373    2.8000    0.0000 C   0  0  0  0  0  0  0  0  0  0  0  0
    4.8497    3.5000    0.0000 C   0  0  0  0  0  0  0  0  0  0  0  0
    2.4249    3.5000    0.0000 C   0  0  0  0  0  0  0  0  0  0  0  0
    3.6373    1.4000    0.0000 C   0  0  0  0  0  0  0  0  0  0  0  0
    6.0622    2.8000    0.0000 C   0  0  0  0  0  0  0  0  0  0  0  0
    1.2124    2.8000    0.0000 C   0  0  0  0  0  0  0  0  0  0  0  0
    2.4249    0.7000    0.0000 C   0  0  0  0  0  0  0  0  0  0  0  0
    6.0622    1.4000    0.0000 C   0  0  0  0  0  0  0  0  0  0  0  0
    7.2746    3.5000    0.0000 C   0  0  0  0  0  0  0  0  0  0  0  0
    1.2124    1.4000    0.0000 C   0  0  0  0  0  0  0  0  0  0  0  0
    0.0000    3.5000    0.0000 O   0  0  0  0  0  0  0  0  0  0  0  0
    6.0622    0.0000    0.0000 N   0  0  0  0  0  0  0  0  0  0  0  0
    8.4871    4.2000    0.0000 N   0  0  0  0  0  0  0  0  0  0  0  0
    0.0000    0.7000    0.0000 O   0  0  0  0  0  0  0  0  0  0  0  0
  1  2  1  0  0  0  0
  1  3  2  0  0  0  0
  1  4  1  0  0  0  0
  2  5  2  0  0  0  0
  3  6  1  0  0  0  0
  4  7  2  0  0  0  0
  5  8  1  0  0  0  0
  5  9  1  0  0  0  0
  6 10  2  0  0  0  0
  6 11  1  0  0  0  0
  7 10  1  0  0  0  0
  8 12  3  0  0  0  0
  9 13  3  0  0  0  0
 10 14  1  0  0  0  0
M  END
>  <Mol_ID> (322)
2279

>  <Formula> (322)
C10H6N2O2

>  <MolWeight> (322)
186.16684

>  <Cat> (322)
S8009

>  <Name> (322)
AG 18 (Tyrphostin 23)

>  <Synonyms> (322)
RG-50810

>  <Target> (322)
EGFR

>  <Form> (322)
Free Base

>  <CAS> (322)
118409-57-7

>  <URL> (322)
http://www.selleckchem.com/products/ag-18-tyrphostin-23.html

$$$$

csChFnd80/05071909292D

 37 40  0  0  0  0  0  0  0  0999 V2000
    8.2594    6.0622    0.0000 N   0  0  0  0  0  0  0  0  0  0  0  0
    6.8594    6.0622    0.0000 C   0  0  0  0  0  0  0  0  0  0  0  0
    6.1594    7.2746    0.0000 O   0  0  0  0  0  0  0  0  0  0  0  0
    6.1594    4.8497    0.0000 N   0  0  0  0  0  0  0  0  0  0  0  0
    2.6050    5.5497    0.0000 O   0  0  0  0  0  0  0  0  0  0  0  0
    3.9365    5.9824    0.0000 N   0  0  0  0  0  0  0  0  0  0  0  0
    4.7594    4.8497    0.0000 C   0  0  0  0  0  0  0  0  0  0  0  0
    3.9365    3.7171    0.0000 C   0  0  0  0  0  0  0  0  0  0  0  0
    2.6050    4.1497    0.0000 C   0  0  0  0  0  0  0  0  0  0  0  0
    1.9555    1.9473    0.0000 C   0  0  0  0  0  0  0  0  0  0  0  0
    1.1326    3.0800    0.0000 C   0  0  0  0  0  0  0  0  0  0  0  0
    0.3097    4.2126    0.0000 C   0  0  0  0  0  0  0  0  0  0  0  0
    0.0000    2.2571    0.0000 C   0  0  0  0  0  0  0  0  0  0  0  0
    0.8229    1.1244    0.0000 F   0  0  0  0  0  0  0  0  0  0  0  0
    3.0881    2.7702    0.0000 F   0  0  0  0  0  0  0  0  0  0  0  0
    2.7784    0.8147    0.0000 F   0  0  0  0  0  0  0  0  0  0  0  0
    8.9594    4.8497    0.0000 C   0  0  0  0  0  0  0  0  0  0  0  0
   10.3594    4.8497    0.0000 C   0  0  0  0  0  0  0  0  0  0  0  0
   11.0594    3.6373    0.0000 C   0  0  0  0  0  0  0  0  0  0  0  0
   10.3594    2.4249    0.0000 C   0  0  0  0  0  0  0  0  0  0  0  0
    8.9594    2.4249    0.0000 C   0  0  0  0  0  0  0  0  0  0  0  0
    8.2594    3.6373    0.0000 C   0  0  0  0  0  0  0  0  0  0  0  0
   12.4594    3.6373    0.0000 O   0  0  0  0  0  0  0  0  0  0  0  0
   14.5594    0.0000    0.0000 N   0  0  0  0  0  0  0  0  0  0  0  0
   13.1594    0.0000    0.0000 C   0  0  0  0  0  0  0  0  0  0  0  0
   12.4594    1.2124    0.0000 N   0  0  0  0  0  0  0  0  0  0  0  0
   13.1594    2.4249    0.0000 C   0  0  0  0  0  0  0  0  0  0  0  0
   14.5594    2.4249    0.0000 C   0  0  0  0  0  0  0  0  0  0  0  0
   15.2594    3.6373    0.0000 C   0  0  0  0  0  0  0  0  0  0  0  0
   16.6594    3.6373    0.0000 C   0  0  0  0  0  0  0  0  0  0  0  0
   17.3594    2.4249    0.0000 C   0  0  0  0  0  0  0  0  0  0  0  0
   16.6594    1.2124    0.0000 C   0  0  0  0  0  0  0  0  0  0  0  0
   15.2594    1.2124    0.0000 C   0  0  0  0  0  0  0  0  0  0  0  0
   18.7594    2.4249    0.0000 O   0  0  0  0  0  0  0  0  0  0  0  0
   19.4594    1.2124    0.0000 C   0  0  0  0  0  0  0  0  0  0  0  0
   17.3594    4.8497    0.0000 O   0  0  0  0  0  0  0  0  0  0  0  0
   18.7594    4.8497    0.0000 C   0  0  0  0  0  0  0  0  0  0  0  0
  1  2  1  0  0  0  0
  2  3  2  0  0  0  0
  2  4  1  0  0  0  0
  5  6  1  0  0  0  0
  6  7  2  0  0  0  0
  7  8  1  0  0  0  0
  8  9  2  0  0  0  0
  5  9  1  0  0  0  0
 10 11  1  0  0  0  0
 11 12  1  0  0  0  0
 11 13  1  0  0  0  0
 10 14  1  0  0  0  0
 10 15  1  0  0  0  0
 10 16  1  0  0  0  0
  9 11  1  0  0  0  0
  4  7  1  0  0  0  0
 17 18  1  0  0  0  0
 18 19  2  0  0  0  0
 19 20  1  0  0  0  0
 20 21  2  0  0  0  0
 21 22  1  0  0  0  0
 17 22  2  0  0  0  0
 24 25  1  0  0  0  0
 25 26  2  0  0  0  0
 26 27  1  0  0  0  0
 27 28  2  0  0  0  0
 28 29  1  0  0  0  0
 29 30  2  0  0  0  0
 30 31  1  0  0  0  0
 31 32  2  0  0  0  0
 32 33  1  0  0  0  0
 24 33  2  0  0  0  0
 28 33  1  0  0  0  0
 23 27  1  0  0  0  0
 34 35  1  0  0  0  0
 31 34  1  0  0  0  0
 36 37  1  0  0  0  0
 30 36  1  0  0  0  0
 19 23  1  0  0  0  0
  1 17  1  0  0  0  0
M  END
>  <Mol_ID> (323)
2280

>  <Formula> (323)
C24H22F3N5O5

>  <MolWeight> (323)
517.4571896

>  <Cat> (323)
S8015

>  <Name> (323)
CEP-32496

>  <Synonyms> (323)
N/A

>  <Target> (323)
Raf

>  <Form> (323)
Free Base

>  <CAS> (323)
1188910-76-0

>  <URL> (323)
http://www.selleckchem.com/products/cep-32496.html

$$$$
AP26113.cdx
csChFnd80/05071909292D

 36 39  0  0  0  0  0  0  0  0999 V2000
   10.9119    4.9000    0.0000 C   0  0  0  0  0  0  0  0  0  0  0  0
   12.1244    4.2000    0.0000 N   0  0  0  0  0  0  0  0  0  0  0  0
   13.3368    4.9000    0.0000 C   0  0  0  0  0  0  0  0  0  0  0  0
   13.3368    6.3000    0.0000 C   0  0  0  0  0  0  0  0  0  0  0  0
   12.1244    7.0000    0.0000 C   0  0  0  0  0  0  0  0  0  0  0  0
   10.9119    6.3000    0.0000 N   0  0  0  0  0  0  0  0  0  0  0  0
    9.6995    4.2000    0.0000 N   0  0  0  0  0  0  0  0  0  0  0  0
   14.5492    4.2000    0.0000 N   0  0  0  0  0  0  0  0  0  0  0  0
   14.5492    2.8000    0.0000 C   0  0  0  0  0  0  0  0  0  0  0  0
   15.7617    2.1000    0.0000 C   0  0  0  0  0  0  0  0  0  0  0  0
   15.7617    0.7000    0.0000 C   0  0  0  0  0  0  0  0  0  0  0  0
   14.5492    0.0000    0.0000 C   0  0  0  0  0  0  0  0  0  0  0  0
   13.3368    0.7000    0.0000 C   0  0  0  0  0  0  0  0  0  0  0  0
   13.3368    2.1000    0.0000 C   0  0  0  0  0  0  0  0  0  0  0  0
   16.9741    2.8000    0.0000 P   0  0  0  0  0  0  0  0  0  0  0  0
   16.2741    4.0124    0.0000 O   0  0  0  0  0  0  0  0  0  0  0  0
   18.1865    3.5000    0.0000 C   0  0  0  0  0  0  0  0  0  0  0  0
   17.6741    1.5876    0.0000 C   0  0  0  0  0  0  0  0  0  0  0  0
    8.4870    4.9000    0.0000 C   0  0  0  0  0  0  0  0  0  0  0  0
    7.2746    4.2000    0.0000 C   0  0  0  0  0  0  0  0  0  0  0  0
    6.0622    4.9000    0.0000 C   0  0  0  0  0  0  0  0  0  0  0  0
    6.0622    6.3000    0.0000 C   0  0  0  0  0  0  0  0  0  0  0  0
    7.2746    7.0000    0.0000 C   0  0  0  0  0  0  0  0  0  0  0  0
    8.4871    6.3000    0.0000 C   0  0  0  0  0  0  0  0  0  0  0  0
    7.2746    2.8000    0.0000 O   0  0  0  0  0  0  0  0  0  0  0  0
    4.8497    7.0000    0.0000 N   0  0  0  0  0  0  0  0  0  0  0  0
    3.6373    6.3000    0.0000 C   0  0  0  0  0  0  0  0  0  0  0  0
    2.4249    7.0000    0.0000 C   0  0  0  0  0  0  0  0  0  0  0  0
    2.4249    8.4000    0.0000 C   0  0  0  0  0  0  0  0  0  0  0  0
    3.6373    9.1000    0.0000 C   0  0  0  0  0  0  0  0  0  0  0  0
    4.8497    8.4000    0.0000 C   0  0  0  0  0  0  0  0  0  0  0  0
    1.2124    9.1000    0.0000 N   0  0  0  0  0  0  0  0  0  0  0  0
    1.2124   10.5000    0.0000 C   0  0  0  0  0  0  0  0  0  0  0  0
    0.0000    8.4000    0.0000 C   0  0  0  0  0  0  0  0  0  0  0  0
   14.5492    7.0000    0.0000 Cl  0  0  0  0  0  0  0  0  0  0  0  0
    6.0664    2.1024    0.0000 C   0  0  0  0  0  0  0  0  0  0  0  0
  1  2  1  0  0  0  0
  2  3  2  0  0  0  0
  3  4  1  0  0  0  0
  4  5  2  0  0  0  0
  5  6  1  0  0  0  0
  1  6  2  0  0  0  0
  1  7  1  0  0  0  0
  3  8  1  0  0  0  0
  9 10  1  0  0  0  0
 10 11  2  0  0  0  0
 11 12  1  0  0  0  0
 12 13  2  0  0  0  0
 13 14  1  0  0  0  0
  9 14  2  0  0  0  0
 15 16  2  0  0  0  0
 15 17  1  0  0  0  0
 15 18  1  0  0  0  0
 10 15  1  0  0  0  0
  8  9  1  0  0  0  0
 19 20  1  0  0  0  0
 20 21  2  0  0  0  0
 21 22  1  0  0  0  0
 22 23  2  0  0  0  0
 23 24  1  0  0  0  0
 19 24  2  0  0  0  0
 20 25  1  0  0  0  0
 26 27  1  0  0  0  0
 27 28  1  0  0  0  0
 28 29  1  0  0  0  0
 29 30  1  0  0  0  0
 30 31  1  0  0  0  0
 26 31  1  0  0  0  0
 32 33  1  0  0  0  0
 32 34  1  0  0  0  0
 29 32  1  0  0  0  0
 22 26  1  0  0  0  0
  7 19  1  0  0  0  0
  4 35  1  0  0  0  0
 25 36  1  0  0  0  0
M  END
>  <Mol_ID> (324)
2284

>  <Formula> (324)
C26H34ClN6O2P

>  <MolWeight> (324)
529.013921

>  <Cat> (324)
S7000

>  <Name> (324)
AP26113

>  <Synonyms> (324)
N/A

>  <Target> (324)
ALK

>  <Form> (324)
Free Base

>  <CAS> (324)
1197958-12-5

>  <URL> (324)
http://www.selleckchem.com/products/ap26113.html

$$$$
AZD5363.cdx
csChFnd80/05071909292D

 30 33  0  0  0  0  0  0  0  0999 V2000
    8.6935    4.2000    0.0000 N   0  0  0  0  0  0  0  0  0  0  0  0
    7.4810    4.9000    0.0000 C   0  0  0  0  0  0  0  0  0  0  0  0
    7.4810    6.3000    0.0000 C   0  0  0  0  0  0  0  0  0  0  0  0
    8.6935    7.0000    0.0000 C   0  0  0  0  0  0  0  0  0  0  0  0
    9.9059    6.3000    0.0000 C   0  0  0  0  0  0  0  0  0  0  0  0
    9.9059    4.9000    0.0000 C   0  0  0  0  0  0  0  0  0  0  0  0
    7.7936    8.0725    0.0000 C   0  0  0  0  0  0  0  0  0  0  0  0
    8.2724    9.3880    0.0000 O   0  0  0  0  0  0  0  0  0  0  0  0
    6.4148    7.8294    0.0000 N   0  0  0  0  0  0  0  0  0  0  0  0
    7.4810    0.7000    0.0000 C   0  0  0  0  0  0  0  0  0  0  0  0
    8.6935    0.0000    0.0000 N   0  0  0  0  0  0  0  0  0  0  0  0
    9.9059    0.7000    0.0000 C   0  0  0  0  0  0  0  0  0  0  0  0
    9.9059    2.1000    0.0000 C   0  0  0  0  0  0  0  0  0  0  0  0
    8.6935    2.8000    0.0000 C   0  0  0  0  0  0  0  0  0  0  0  0
    7.4810    2.1000    0.0000 N   0  0  0  0  0  0  0  0  0  0  0  0
   11.2374    0.2674    0.0000 N   0  0  0  0  0  0  0  0  0  0  0  0
   11.2374    2.5326    0.0000 C   0  0  0  0  0  0  0  0  0  0  0  0
   12.0603    1.4000    0.0000 C   0  0  0  0  0  0  0  0  0  0  0  0
    5.5149    8.9018    0.0000 C   0  0  1  0  0  0  0  0  0  0  0  0
    5.9938   10.2174    0.0000 C   0  0  0  0  0  0  0  0  0  0  0  0
    5.0938   11.2898    0.0000 C   0  0  0  0  0  0  0  0  0  0  0  0
    4.1362    8.6587    0.0000 C   0  0  0  0  0  0  0  0  0  0  0  0
    3.6574    7.3431    0.0000 C   0  0  0  0  0  0  0  0  0  0  0  0
    2.2786    7.1000    0.0000 C   0  0  0  0  0  0  0  0  0  0  0  0
    1.3787    8.1725    0.0000 C   0  0  0  0  0  0  0  0  0  0  0  0
    1.8576    9.4881    0.0000 C   0  0  0  0  0  0  0  0  0  0  0  0
    3.2363    9.7312    0.0000 C   0  0  0  0  0  0  0  0  0  0  0  0
    0.0000    7.9294    0.0000 Cl  0  0  0  0  0  0  0  0  0  0  0  0
    9.5934    8.0725    0.0000 N   0  0  0  0  0  0  0  0  0  0  0  0
    5.5710   12.6008    0.0000 O   0  0  0  0  0  0  0  0  0  0  0  0
  1  2  1  0  0  0  0
  2  3  1  0  0  0  0
  3  4  1  0  0  0  0
  4  5  1  0  0  0  0
  5  6  1  0  0  0  0
  1  6  1  0  0  0  0
  7  8  2  0  0  0  0
  7  9  1  0  0  0  0
  4  7  1  0  0  0  0
 10 11  2  0  0  0  0
 11 12  1  0  0  0  0
 12 13  2  0  0  0  0
 13 14  1  0  0  0  0
 14 15  2  0  0  0  0
 10 15  1  0  0  0  0
 17 18  2  0  0  0  0
 16 18  1  0  0  0  0
 12 16  1  0  0  0  0
 13 17  1  0  0  0  0
  1 14  1  0  0  0  0
 19 20  1  6  0  0  0
 20 21  1  0  0  0  0
 22 23  1  0  0  0  0
 23 24  2  0  0  0  0
 24 25  1  0  0  0  0
 25 26  2  0  0  0  0
 26 27  1  0  0  0  0
 22 27  2  0  0  0  0
 25 28  1  0  0  0  0
 19 22  1  0  0  0  0
  9 19  1  0  0  0  0
  4 29  1  0  0  0  0
 21 30  1  0  0  0  0
M  END
>  <Mol_ID> (325)
2288

>  <Formula> (325)
C21H25ClN6O2

>  <MolWeight> (325)
428.9152

>  <Cat> (325)
S8019

>  <Name> (325)
AZD5363

>  <Synonyms> (325)
N/A

>  <Target> (325)
Akt

>  <Form> (325)
Free Base

>  <CAS> (325)
1143532-39-1

>  <URL> (325)
http://www.selleckchem.com/products/azd5363.html

$$$$
AG-1296.cdx
csChFnd80/05071909292D

 20 22  0  0  0  0  0  0  0  0999 V2000
    6.0660    2.8113    0.0000 N   0  0  0  0  0  0  0  0  0  0  0  0
    7.2785    2.1113    0.0000 C   0  0  0  0  0  0  0  0  0  0  0  0
    7.2785    0.7135    0.0000 C   0  0  0  0  0  0  0  0  0  0  0  0
    6.0709    0.0163    0.0000 N   0  0  0  0  0  0  0  0  0  0  0  0
    4.8647    0.7127    0.0000 C   0  0  0  0  0  0  0  0  0  0  0  0
    3.6453    0.0086    0.0000 C   0  0  0  0  0  0  0  0  0  0  0  0
    2.4402    0.7044    0.0000 C   0  0  0  0  0  0  0  0  0  0  0  0
    2.4402    2.0956    0.0000 C   0  0  0  0  0  0  0  0  0  0  0  0
    3.6450    2.7912    0.0000 C   0  0  0  0  0  0  0  0  0  0  0  0
    4.8498    2.0957    0.0000 C   0  0  0  0  0  0  0  0  0  0  0  0
    8.4896    2.8180    0.0000 C   0  0  0  0  0  0  0  0  0  0  0  0
    8.4844    4.2180    0.0000 C   0  0  0  0  0  0  0  0  0  0  0  0
    9.6943    4.9225    0.0000 C   0  0  0  0  0  0  0  0  0  0  0  0
   10.9093    4.2269    0.0000 C   0  0  0  0  0  0  0  0  0  0  0  0
   10.9144    2.8270    0.0000 C   0  0  0  0  0  0  0  0  0  0  0  0
    9.7046    2.1225    0.0000 C   0  0  0  0  0  0  0  0  0  0  0  0
    1.2201    2.8000    0.0000 O   0  0  0  0  0  0  0  0  0  0  0  0
    0.0000    2.0956    0.0000 C   0  0  0  0  0  0  0  0  0  0  0  0
    1.2202    0.0000    0.0000 O   0  0  0  0  0  0  0  0  0  0  0  0
    0.0155    0.6956    0.0000 C   0  0  0  0  0  0  0  0  0  0  0  0
  1  2  1  0  0  0  0
  2  3  2  0  0  0  0
  3  4  1  0  0  0  0
  4  5  2  0  0  0  0
  5  6  1  0  0  0  0
  6  7  2  0  0  0  0
  7  8  1  0  0  0  0
  8  9  2  0  0  0  0
  9 10  1  0  0  0  0
  1 10  2  0  0  0  0
  5 10  1  0  0  0  0
 11 12  1  0  0  0  0
 12 13  2  0  0  0  0
 13 14  1  0  0  0  0
 14 15  2  0  0  0  0
 15 16  1  0  0  0  0
 11 16  2  0  0  0  0
  2 11  1  0  0  0  0
 17 18  1  0  0  0  0
  8 17  1  0  0  0  0
 19 20  1  0  0  0  0
  7 19  1  0  0  0  0
M  END
>  <Mol_ID> (326)
2289

>  <Formula> (326)
C16H14N2O2

>  <MolWeight> (326)
266.29456

>  <Cat> (326)
S8024

>  <Name> (326)
Tyrphostin AG 1296 (AG 1296)

>  <Synonyms> (326)
N/A

>  <Target> (326)
PDGFR

>  <Form> (326)
Free Base

>  <CAS> (326)
146535-11-7

>  <URL> (326)
http://www.selleckchem.com/products/tyrphostin-ag-1296-ag-1296.html

$$$$
flt-3 inhibitor I(TCS 359).cdx
csChFnd80/05071909292D

 25 27  0  0  0  0  0  0  0  0999 V2000
    2.4249    4.1460    0.0000 C   0  0  0  0  0  0  0  0  0  0  0  0
    2.4249    2.7460    0.0000 C   0  0  0  0  0  0  0  0  0  0  0  0
    3.7564    2.3134    0.0000 C   0  0  0  0  0  0  0  0  0  0  0  0
    4.5793    3.4460    0.0000 C   0  0  0  0  0  0  0  0  0  0  0  0
    3.7564    4.5786    0.0000 S   0  0  0  0  0  0  0  0  0  0  0  0
    1.2124    2.0460    0.0000 C   0  0  0  0  0  0  0  0  0  0  0  0
    0.0000    2.7460    0.0000 C   0  0  0  0  0  0  0  0  0  0  0  0
    0.0000    4.1460    0.0000 C   0  0  0  0  0  0  0  0  0  0  0  0
    1.2124    4.8460    0.0000 C   0  0  0  0  0  0  0  0  0  0  0  0
    4.1875    0.9865    0.0000 C   0  0  0  0  0  0  0  0  0  0  0  0
    3.2010    0.0000    0.0000 O   0  0  0  0  0  0  0  0  0  0  0  0
    5.5351    0.6254    0.0000 N   0  0  0  0  0  0  0  0  0  0  0  0
    5.9744    3.4460    0.0000 N   0  0  0  0  0  0  0  0  0  0  0  0
    6.6720    4.6542    0.0000 C   0  0  0  0  0  0  0  0  0  0  0  0
    5.9744    5.8624    0.0000 C   0  0  0  0  0  0  0  0  0  0  0  0
    4.5744    5.8624    0.0000 C   0  0  0  0  0  0  0  0  0  0  0  0
    3.8744    7.0749    0.0000 C   0  0  0  0  0  0  0  0  0  0  0  0
    4.5744    8.2873    0.0000 C   0  0  0  0  0  0  0  0  0  0  0  0
    5.9744    8.2873    0.0000 C   0  0  0  0  0  0  0  0  0  0  0  0
    6.6744    7.0749    0.0000 C   0  0  0  0  0  0  0  0  0  0  0  0
    8.0671    4.6542    0.0000 O   0  0  0  0  0  0  0  0  0  0  0  0
    3.8768    9.4955    0.0000 O   0  0  0  0  0  0  0  0  0  0  0  0
    2.4793    7.0749    0.0000 O   0  0  0  0  0  0  0  0  0  0  0  0
    1.7817    8.2831    0.0000 C   0  0  0  0  0  0  0  0  0  0  0  0
    2.4817    9.4955    0.0000 C   0  0  0  0  0  0  0  0  0  0  0  0
  1  2  2  0  0  0  0
  2  3  1  0  0  0  0
  3  4  2  0  0  0  0
  4  5  1  0  0  0  0
  1  5  1  0  0  0  0
  6  7  1  0  0  0  0
  7  8  1  0  0  0  0
  8  9  1  0  0  0  0
  1  9  1  0  0  0  0
  2  6  1  0  0  0  0
 10 11  2  0  0  0  0
 10 12  1  0  0  0  0
  3 10  1  0  0  0  0
 14 15  1  0  0  0  0
 15 16  1  0  0  0  0
 16 17  2  0  0  0  0
 17 18  1  0  0  0  0
 18 19  2  0  0  0  0
 19 20  1  0  0  0  0
 15 20  2  0  0  0  0
 14 21  2  0  0  0  0
 18 22  1  0  0  0  0
 23 24  1  0  0  0  0
 17 23  1  0  0  0  0
 13 14  1  0  0  0  0
  4 13  1  0  0  0  0
 22 25  1  0  0  0  0
M  END
>  <Mol_ID> (327)
2290

>  <Formula> (327)
C18H20N2O4S

>  <MolWeight> (327)
360.4274

>  <Cat> (327)
S8023

>  <Name> (327)
TCS 359

>  <Synonyms> (327)
N/A

>  <Target> (327)
FLT3

>  <Form> (327)
Free Base

>  <CAS> (327)
301305-73-7

>  <URL> (327)
http://www.selleckchem.com/products/tcs-359.html

$$$$
Sodium Fluorophosphate.cdx
csChFnd80/05071909292D

  7  4  0  0  0  0  0  0  0  0999 V2000
    3.8538    1.4000    0.0000 P   0  0  0  0  0  0  0  0  0  0  0  0
    3.8538    2.7966    0.0000 O   0  0  0  0  0  0  0  0  0  0  0  0
    3.8538    0.0000    0.0000 F   0  0  0  0  0  0  0  0  0  0  0  0
    5.2605    1.4000    0.0000 O   0  5  0  0  0  0  0  0  0  0  0  0
    2.4639    1.4000    0.0000 O   0  5  0  0  0  0  0  0  0  0  0  0
    3.3582    1.3983    0.0000 Na  0  3  0  0  0  0  0  0  0  0  0  0
    1.9582    1.3983    0.0000 Na  0  3  0  0  0  0  0  0  0  0  0  0
  1  2  2  0  0  0  0
  1  3  1  0  0  0  0
  1  4  1  0  0  0  0
  1  5  1  0  0  0  0
M  END
>  <Mol_ID> (328)
2294

>  <Formula> (328)
FNa2O3P

>  <MolWeight> (328)
143.9499042

>  <Cat> (328)
S4013

>  <Name> (328)
Sodium Monofluorophosphate

>  <Synonyms> (328)
Sodium Fluorophosphate

>  <Target> (328)
Others
phosphatase

>  <Form> (328)
Disodium salt

>  <CAS> (328)
10163-15-2

>  <URL> (328)
http://www.selleckchem.com/products/sodium-monofluorophosphate.html

$$$$
IPI-145.cdx
csChFnd80/05071909292D

 30 34  0  0  0  0  0  0  0  0999 V2000
    0.0000    7.8085    0.0000 C   0  0  0  0  0  0  0  0  0  0  0  0
    0.0000    6.4085    0.0000 C   0  0  0  0  0  0  0  0  0  0  0  0
    1.2124    5.7085    0.0000 C   0  0  0  0  0  0  0  0  0  0  0  0
    2.4249    6.4085    0.0000 C   0  0  0  0  0  0  0  0  0  0  0  0
    2.4249    7.8085    0.0000 C   0  0  0  0  0  0  0  0  0  0  0  0
    1.2124    8.5085    0.0000 C   0  0  0  0  0  0  0  0  0  0  0  0
    3.6373    5.7085    0.0000 C   0  0  0  0  0  0  0  0  0  0  0  0
    4.8497    6.4085    0.0000 C   0  0  0  0  0  0  0  0  0  0  0  0
    4.8497    7.8085    0.0000 N   0  0  0  0  0  0  0  0  0  0  0  0
    3.6373    8.5085    0.0000 C   0  0  0  0  0  0  0  0  0  0  0  0
    6.0622    5.7085    0.0000 C   0  0  2  0  0  0  0  0  0  0  0  0
    7.2746    6.4085    0.0000 C   0  0  0  0  0  0  0  0  0  0  0  0
    7.2746    7.8085    0.0000 C   0  0  0  0  0  0  0  0  0  0  0  0
    6.0622    8.5085    0.0000 C   0  0  0  0  0  0  0  0  0  0  0  0
    8.4871    8.5085    0.0000 C   0  0  0  0  0  0  0  0  0  0  0  0
    8.4871    9.9085    0.0000 C   0  0  0  0  0  0  0  0  0  0  0  0
    7.2746   10.6085    0.0000 C   0  0  0  0  0  0  0  0  0  0  0  0
    6.0622    9.9085    0.0000 C   0  0  0  0  0  0  0  0  0  0  0  0
    1.2124    9.9036    0.0000 Cl  0  0  0  0  0  0  0  0  0  0  0  0
    3.6373    9.9036    0.0000 O   0  0  0  0  0  0  0  0  0  0  0  0
    6.0622    4.3133    0.0000 N   0  0  0  0  0  0  0  0  0  0  0  0
    4.8540    3.6157    0.0000 C   0  0  0  0  0  0  0  0  0  0  0  0
    3.6415    4.3157    0.0000 N   0  0  0  0  0  0  0  0  0  0  0  0
    2.4291    3.6157    0.0000 C   0  0  0  0  0  0  0  0  0  0  0  0
    2.4291    2.2157    0.0000 N   0  0  0  0  0  0  0  0  0  0  0  0
    3.6415    1.5157    0.0000 C   0  0  0  0  0  0  0  0  0  0  0  0
    4.8540    2.2157    0.0000 C   0  0  0  0  0  0  0  0  0  0  0  0
    3.9326    0.1463    0.0000 N   0  0  0  0  0  0  0  0  0  0  0  0
    5.3249    0.0000    0.0000 C   0  0  0  0  0  0  0  0  0  0  0  0
    5.8944    1.2790    0.0000 N   0  0  0  0  0  0  0  0  0  0  0  0
  1  2  2  0  0  0  0
  2  3  1  0  0  0  0
  3  4  2  0  0  0  0
  4  5  1  0  0  0  0
  5  6  2  0  0  0  0
  6  1  1  0  0  0  0
  4  7  1  0  0  0  0
  7  8  2  0  0  0  0
  8  9  1  0  0  0  0
  9 10  1  0  0  0  0
 10  5  1  0  0  0  0
  8 11  1  0  0  0  0
 11 12  1  0  0  0  0
 13 14  2  0  0  0  0
 14  9  1  0  0  0  0
 13 15  1  0  0  0  0
 15 16  2  0  0  0  0
 16 17  1  0  0  0  0
 17 18  2  0  0  0  0
 18 14  1  0  0  0  0
  6 19  1  0  0  0  0
 10 20  2  0  0  0  0
 11 21  1  6  0  0  0
 21 22  1  0  0  0  0
 22 23  2  0  0  0  0
 23 24  1  0  0  0  0
 24 25  2  0  0  0  0
 25 26  1  0  0  0  0
 26 27  2  0  0  0  0
 27 22  1  0  0  0  0
 26 28  1  0  0  0  0
 28 29  1  0  0  0  0
 29 30  2  0  0  0  0
 30 27  1  0  0  0  0
M  END
>  <Mol_ID> (329)
2295

>  <Formula> (329)
C22H17ClN6O

>  <MolWeight> (329)
416.86298

>  <Cat> (329)
S7028

>  <Name> (329)
Duvelisib (IPI-145, INK1197)

>  <Synonyms> (329)
N/A

>  <Target> (329)
PI3K

>  <Form> (329)
Free Base

>  <CAS> (329)
1201438-56-3

>  <URL> (329)
http://www.selleckchem.com/products/ipi-145-ink1197.html

$$$$
GW2580.cdx
csChFnd80/05071909292D

 27 29  0  0  0  0  0  0  0  0999 V2000
    1.2082    4.1976    0.0000 N   0  0  0  0  0  0  0  0  0  0  0  0
    1.2082    2.7976    0.0000 C   0  0  0  0  0  0  0  0  0  0  0  0
    2.4207    2.0976    0.0000 N   0  0  0  0  0  0  0  0  0  0  0  0
    3.6331    2.7976    0.0000 C   0  0  0  0  0  0  0  0  0  0  0  0
    3.6331    4.1976    0.0000 C   0  0  0  0  0  0  0  0  0  0  0  0
    2.4207    4.8976    0.0000 C   0  0  0  0  0  0  0  0  0  0  0  0
    2.4207    6.2927    0.0000 N   0  0  0  0  0  0  0  0  0  0  0  0
    0.0000    2.1000    0.0000 N   0  0  0  0  0  0  0  0  0  0  0  0
    4.8413    4.8951    0.0000 C   0  0  0  0  0  0  0  0  0  0  0  0
    6.0496    4.1976    0.0000 C   0  0  0  0  0  0  0  0  0  0  0  0
    6.0496    2.7976    0.0000 C   0  0  0  0  0  0  0  0  0  0  0  0
    7.2620    2.0976    0.0000 C   0  0  0  0  0  0  0  0  0  0  0  0
    8.4744    2.7976    0.0000 C   0  0  0  0  0  0  0  0  0  0  0  0
    8.4744    4.1976    0.0000 C   0  0  0  0  0  0  0  0  0  0  0  0
    7.2620    4.8976    0.0000 C   0  0  0  0  0  0  0  0  0  0  0  0
    9.6827    4.8951    0.0000 O   0  0  0  0  0  0  0  0  0  0  0  0
   10.8909    4.1976    0.0000 C   0  0  0  0  0  0  0  0  0  0  0  0
    9.6827    2.1000    0.0000 O   0  0  0  0  0  0  0  0  0  0  0  0
   10.8909    2.7976    0.0000 C   0  0  0  0  0  0  0  0  0  0  0  0
   12.0991    2.1000    0.0000 C   0  0  0  0  0  0  0  0  0  0  0  0
   12.0991    0.7000    0.0000 C   0  0  0  0  0  0  0  0  0  0  0  0
   13.3115    0.0000    0.0000 C   0  0  0  0  0  0  0  0  0  0  0  0
   14.5240    0.7000    0.0000 C   0  0  0  0  0  0  0  0  0  0  0  0
   14.5240    2.1000    0.0000 C   0  0  0  0  0  0  0  0  0  0  0  0
   13.3115    2.8000    0.0000 C   0  0  0  0  0  0  0  0  0  0  0  0
   15.7322    0.0024    0.0000 O   0  0  0  0  0  0  0  0  0  0  0  0
   16.9404    0.7000    0.0000 C   0  0  0  0  0  0  0  0  0  0  0  0
  1  2  2  0  0  0  0
  2  3  1  0  0  0  0
  3  4  2  0  0  0  0
  4  5  1  0  0  0  0
  5  6  2  0  0  0  0
  6  1  1  0  0  0  0
  6  7  1  0  0  0  0
  2  8  1  0  0  0  0
  5  9  1  0  0  0  0
  9 10  1  0  0  0  0
 10 11  2  0  0  0  0
 11 12  1  0  0  0  0
 12 13  2  0  0  0  0
 13 14  1  0  0  0  0
 14 15  2  0  0  0  0
 15 10  1  0  0  0  0
 14 16  1  0  0  0  0
 16 17  1  0  0  0  0
 13 18  1  0  0  0  0
 18 19  1  0  0  0  0
 19 20  1  0  0  0  0
 20 21  2  0  0  0  0
 21 22  1  0  0  0  0
 22 23  2  0  0  0  0
 23 24  1  0  0  0  0
 24 25  2  0  0  0  0
 25 20  1  0  0  0  0
 23 26  1  0  0  0  0
 26 27  1  0  0  0  0
M  END
>  <Mol_ID> (330)
2313

>  <Formula> (330)
C20H22N4O3

>  <MolWeight> (330)
366.41368

>  <Cat> (330)
S8042

>  <Name> (330)
GW2580

>  <Synonyms> (330)
N/A

>  <Target> (330)
CSF-1R

>  <Form> (330)
Free Base

>  <CAS> (330)
870483-87-7

>  <URL> (330)
http://www.selleckchem.com/products/gw2580.html

$$$$
Butein.cdx
csChFnd80/05071909292D

 20 21  0  0  0  0  0  0  0  0999 V2000
    3.6599    3.5106    0.0000 C   0  0  0  0  0  0  0  0  0  0  0  0
    2.4608    4.2029    0.0000 C   0  0  0  0  0  0  0  0  0  0  0  0
    4.8723    4.2105    0.0000 C   0  0  0  0  0  0  0  0  0  0  0  0
    3.6599    2.1074    0.0000 C   0  0  0  0  0  0  0  0  0  0  0  0
    1.2444    3.5006    0.0000 C   0  0  0  0  0  0  0  0  0  0  0  0
    2.4608    5.6013    0.0000 O   0  0  0  0  0  0  0  0  0  0  0  0
    6.0837    3.5111    0.0000 C   0  0  0  0  0  0  0  0  0  0  0  0
    4.8723    5.6101    0.0000 O   0  0  0  0  0  0  0  0  0  0  0  0
    2.4364    1.4010    0.0000 C   0  0  0  0  0  0  0  0  0  0  0  0
    1.2444    2.1440    0.0000 C   0  0  0  0  0  0  0  0  0  0  0  0
    7.2956    4.2108    0.0000 C   0  0  0  0  0  0  0  0  0  0  0  0
    0.0000    1.4255    0.0000 O   0  0  0  0  0  0  0  0  0  0  0  0
    8.5073    3.5112    0.0000 C   0  0  0  0  0  0  0  0  0  0  0  0
    8.5073    2.1044    0.0000 C   0  0  0  0  0  0  0  0  0  0  0  0
    9.7197    4.2112    0.0000 C   0  0  0  0  0  0  0  0  0  0  0  0
    9.7255    1.4011    0.0000 C   0  0  0  0  0  0  0  0  0  0  0  0
   10.9342    3.5100    0.0000 C   0  0  0  0  0  0  0  0  0  0  0  0
   10.9365    2.1002    0.0000 C   0  0  0  0  0  0  0  0  0  0  0  0
    9.7255    0.0000    0.0000 O   0  0  0  0  0  0  0  0  0  0  0  0
   12.1452    1.4024    0.0000 O   0  0  0  0  0  0  0  0  0  0  0  0
  1  2  2  0  0  0  0
  1  3  1  0  0  0  0
  1  4  1  0  0  0  0
  2  5  1  0  0  0  0
  2  6  1  0  0  0  0
  3  7  1  0  0  0  0
  3  8  2  0  0  0  0
  4  9  2  0  0  0  0
  5 10  2  0  0  0  0
  7 11  2  0  0  0  0
  9 10  1  0  0  0  0
 10 12  1  0  0  0  0
 11 13  1  0  0  0  0
 13 14  2  0  0  0  0
 13 15  1  0  0  0  0
 14 16  1  0  0  0  0
 15 17  2  0  0  0  0
 16 18  2  0  0  0  0
 16 19  1  0  0  0  0
 17 18  1  0  0  0  0
 18 20  1  0  0  0  0
M  END
>  <Mol_ID> (331)
2315

>  <Formula> (331)
C15H12O5

>  <MolWeight> (331)
272.25278

>  <Cat> (331)
S8036

>  <Name> (331)
Butein

>  <Synonyms> (331)
N/A

>  <Target> (331)
EGFR

>  <Form> (331)
Free Base

>  <CAS> (331)
487-52-5

>  <URL> (331)
https://www.selleckchem.com/products/butein.html

$$$$
GDC-0349.cdx
csChFnd80/05071909292D

 33 37  0  0  0  0  0  0  0  0999 V2000
   11.4141   11.2001    0.0000 N   0  0  0  0  0  0  0  0  0  0  0  0
   12.6266   10.4999    0.0000 C   0  0  0  0  0  0  0  0  0  0  0  0
   13.8391   11.2001    0.0000 O   0  0  0  0  0  0  0  0  0  0  0  0
   12.6266    9.1001    0.0000 N   0  0  0  0  0  0  0  0  0  0  0  0
   11.4141    8.4001    0.0000 C   0  0  0  0  0  0  0  0  0  0  0  0
   11.4141    7.0000    0.0000 C   0  0  0  0  0  0  0  0  0  0  0  0
   10.2016    6.3001    0.0000 C   0  0  0  0  0  0  0  0  0  0  0  0
    8.9893    7.0000    0.0000 C   0  0  0  0  0  0  0  0  0  0  0  0
    8.9893    8.4001    0.0000 C   0  0  0  0  0  0  0  0  0  0  0  0
   10.2016    9.1001    0.0000 C   0  0  0  0  0  0  0  0  0  0  0  0
    7.7768    6.3001    0.0000 C   0  0  0  0  0  0  0  0  0  0  0  0
    6.5644    7.0000    0.0000 N   0  0  0  0  0  0  0  0  0  0  0  0
    5.3520    6.3001    0.0000 C   0  0  0  0  0  0  0  0  0  0  0  0
    5.3520    4.9000    0.0000 C   0  0  0  0  0  0  0  0  0  0  0  0
    6.5644    4.2000    0.0000 C   0  0  0  0  0  0  0  0  0  0  0  0
    7.7768    4.9000    0.0000 N   0  0  0  0  0  0  0  0  0  0  0  0
    4.1396    7.0000    0.0000 C   0  0  0  0  0  0  0  0  0  0  0  0
    4.1396    4.2000    0.0000 C   0  0  0  0  0  0  0  0  0  0  0  0
    2.9271    4.9000    0.0000 C   0  0  0  0  0  0  0  0  0  0  0  0
    2.9271    6.3001    0.0000 N   0  0  0  0  0  0  0  0  0  0  0  0
    0.0000    7.9900    0.0000 O   0  0  0  0  0  0  0  0  0  0  0  0
    1.3523    8.3523    0.0000 C   0  0  0  0  0  0  0  0  0  0  0  0
    1.7148    7.0000    0.0000 C   0  0  0  0  0  0  0  0  0  0  0  0
    0.3625    6.6377    0.0000 C   0  0  0  0  0  0  0  0  0  0  0  0
    5.3520    0.7002    0.0000 C   0  0  0  0  0  0  0  0  0  0  0  0
    5.3520    2.1000    0.0000 C   0  0  1  0  0  0  0  0  0  0  0  0
    6.5644    2.8002    0.0000 N   0  0  0  0  0  0  0  0  0  0  0  0
    7.7768    2.1002    0.0000 C   0  0  0  0  0  0  0  0  0  0  0  0
    7.7768    0.7002    0.0000 C   0  0  0  0  0  0  0  0  0  0  0  0
    6.5644    0.0000    0.0000 O   0  0  0  0  0  0  0  0  0  0  0  0
    4.1396    2.8000    0.0000 C   0  0  0  0  0  0  0  0  0  0  0  0
   11.4141   12.5999    0.0000 C   0  0  0  0  0  0  0  0  0  0  0  0
   10.2016   13.3001    0.0000 C   0  0  0  0  0  0  0  0  0  0  0  0
  1  2  1  0  0  0  0
  2  3  2  0  0  0  0
  2  4  1  0  0  0  0
  5  6  1  0  0  0  0
  6  7  2  0  0  0  0
  7  8  1  0  0  0  0
  8  9  2  0  0  0  0
  9 10  1  0  0  0  0
  5 10  2  0  0  0  0
 11 12  1  0  0  0  0
 12 13  2  0  0  0  0
 13 14  1  0  0  0  0
 14 15  2  0  0  0  0
 15 16  1  0  0  0  0
 11 16  2  0  0  0  0
 18 19  1  0  0  0  0
 19 20  1  0  0  0  0
 17 20  1  0  0  0  0
 13 17  1  0  0  0  0
 14 18  1  0  0  0  0
 21 22  1  0  0  0  0
 22 23  1  0  0  0  0
 23 24  1  0  0  0  0
 21 24  1  0  0  0  0
 20 23  1  0  0  0  0
 25 26  1  0  0  0  0
 26 27  1  0  0  0  0
 27 28  1  0  0  0  0
 28 29  1  0  0  0  0
 29 30  1  0  0  0  0
 25 30  1  0  0  0  0
 26 31  1  6  0  0  0
 15 27  1  0  0  0  0
  8 11  1  0  0  0  0
  4  5  1  0  0  0  0
 32 33  1  0  0  0  0
  1 32  1  0  0  0  0
M  END
>  <Mol_ID> (332)
2324

>  <Formula> (332)
C24H32N6O3

>  <MolWeight> (332)
452.54928

>  <Cat> (332)
S8040

>  <Name> (332)
GDC-0349

>  <Synonyms> (332)
RG7603

>  <Target> (332)
mTOR

>  <Form> (332)
Free Base

>  <CAS> (332)
1207360-89-1

>  <URL> (332)
https://www.selleckchem.com/products/gdc-0349.html

$$$$
NVP-TAE684.cdx
csChFnd80/05071909292D

 42 46  0  0  0  0  0  0  0  0999 V2000
    8.4878   11.8986    0.0000 C   0  0  0  0  0  0  0  0  0  0  0  0
    8.4894   10.4986    0.0000 C   0  0  0  0  0  0  0  0  0  0  0  0
    9.7027    9.8000    0.0000 C   0  0  0  0  0  0  0  0  0  0  0  0
   10.9143   10.5014    0.0000 C   0  0  0  0  0  0  0  0  0  0  0  0
   10.9127   11.9014    0.0000 C   0  0  0  0  0  0  0  0  0  0  0  0
    9.6995   12.6000    0.0000 C   0  0  0  0  0  0  0  0  0  0  0  0
   12.1243   12.6028    0.0000 O   0  0  0  0  0  0  0  0  0  0  0  0
   13.3376   11.9041    0.0000 C   0  0  0  0  0  0  0  0  0  0  0  0
    9.7043    8.4000    0.0000 N   0  0  0  0  0  0  0  0  0  0  0  0
    8.4926    7.6986    0.0000 C   0  0  0  0  0  0  0  0  0  0  0  0
    8.4942    6.2986    0.0000 C   0  0  0  0  0  0  0  0  0  0  0  0
    9.7075    5.6000    0.0000 C   0  0  0  0  0  0  0  0  0  0  0  0
   10.9191    6.3014    0.0000 C   0  0  0  0  0  0  0  0  0  0  0  0
   10.9175    7.7014    0.0000 C   0  0  0  0  0  0  0  0  0  0  0  0
    9.7091    4.2000    0.0000 N   0  0  0  0  0  0  0  0  0  0  0  0
    8.4974    3.4986    0.0000 C   0  0  0  0  0  0  0  0  0  0  0  0
    8.4990    2.0986    0.0000 C   0  0  0  0  0  0  0  0  0  0  0  0
    9.7122    1.4000    0.0000 N   0  0  0  0  0  0  0  0  0  0  0  0
   10.9239    2.1014    0.0000 C   0  0  0  0  0  0  0  0  0  0  0  0
   10.9223    3.5014    0.0000 C   0  0  0  0  0  0  0  0  0  0  0  0
    9.7138    0.0000    0.0000 C   0  0  0  0  0  0  0  0  0  0  0  0
    9.6979   14.0000    0.0000 N   0  0  0  0  0  0  0  0  0  0  0  0
    8.4846   14.6986    0.0000 C   0  0  0  0  0  0  0  0  0  0  0  0
    8.4831   16.0986    0.0000 N   0  0  0  0  0  0  0  0  0  0  0  0
    7.2698   16.7972    0.0000 C   0  0  0  0  0  0  0  0  0  0  0  0
    6.0582   16.0958    0.0000 C   0  0  0  0  0  0  0  0  0  0  0  0
    6.0598   14.6958    0.0000 C   0  0  0  0  0  0  0  0  0  0  0  0
    7.2730   13.9972    0.0000 N   0  0  0  0  0  0  0  0  0  0  0  0
    4.8450   16.7945    0.0000 Cl  0  0  0  0  0  0  0  0  0  0  0  0
    4.8481   13.9945    0.0000 N   0  0  0  0  0  0  0  0  0  0  0  0
    4.8497   12.5945    0.0000 C   0  0  0  0  0  0  0  0  0  0  0  0
    3.6381   11.8931    0.0000 C   0  0  0  0  0  0  0  0  0  0  0  0
    3.6397   10.4931    0.0000 C   0  0  0  0  0  0  0  0  0  0  0  0
    4.8529    9.7945    0.0000 C   0  0  0  0  0  0  0  0  0  0  0  0
    6.0646   10.4958    0.0000 C   0  0  0  0  0  0  0  0  0  0  0  0
    6.0630   11.8958    0.0000 C   0  0  0  0  0  0  0  0  0  0  0  0
    2.4249   12.5917    0.0000 S   0  0  0  0  0  0  0  0  0  0  0  0
    3.1235   13.8049    0.0000 O   0  0  0  0  0  0  0  0  0  0  0  0
    1.7263   11.3785    0.0000 O   0  0  0  0  0  0  0  0  0  0  0  0
    1.2116   13.2903    0.0000 C   0  0  0  0  0  0  0  0  0  0  0  0
    0.0000   12.5889    0.0000 C   0  0  0  0  0  0  0  0  0  0  0  0
    1.2100   14.6903    0.0000 C   0  0  0  0  0  0  0  0  0  0  0  0
  1  2  2  0  0  0  0
  2  3  1  0  0  0  0
  3  4  2  0  0  0  0
  4  5  1  0  0  0  0
  5  6  2  0  0  0  0
  6  1  1  0  0  0  0
  5  7  1  0  0  0  0
  7  8  1  0  0  0  0
  3  9  1  0  0  0  0
  9 10  1  0  0  0  0
 10 11  1  0  0  0  0
 11 12  1  0  0  0  0
 12 13  1  0  0  0  0
 13 14  1  0  0  0  0
 14  9  1  0  0  0  0
 12 15  1  0  0  0  0
 15 16  1  0  0  0  0
 16 17  1  0  0  0  0
 17 18  1  0  0  0  0
 18 19  1  0  0  0  0
 19 20  1  0  0  0  0
 20 15  1  0  0  0  0
 18 21  1  0  0  0  0
  6 22  1  0  0  0  0
 22 23  1  0  0  0  0
 23 24  2  0  0  0  0
 24 25  1  0  0  0  0
 25 26  2  0  0  0  0
 26 27  1  0  0  0  0
 27 28  2  0  0  0  0
 28 23  1  0  0  0  0
 26 29  1  0  0  0  0
 27 30  1  0  0  0  0
 30 31  1  0  0  0  0
 31 32  2  0  0  0  0
 32 33  1  0  0  0  0
 33 34  2  0  0  0  0
 34 35  1  0  0  0  0
 35 36  2  0  0  0  0
 36 31  1  0  0  0  0
 32 37  1  0  0  0  0
 37 38  2  0  0  0  0
 37 39  2  0  0  0  0
 37 40  1  0  0  0  0
 40 41  1  0  0  0  0
 40 42  1  0  0  0  0
M  END
>  <Mol_ID> (333)
2327

>  <Formula> (333)
C30H40ClN7O3S

>  <MolWeight> (333)
614.2017

>  <Cat> (333)
S1108

>  <Name> (333)
TAE684 (NVP-TAE684)

>  <Synonyms> (333)
N/A 

>  <Target> (333)
ALK 

>  <Form> (333)
Free Base

>  <CAS> (333)
761439-42-3

>  <URL> (333)
http://www.selleckchem.com/products/NVP-TAE684.html

$$$$
SGX-523 .cdx
csChFnd80/05071909292D

 26 30  0  0  0  0  0  0  0  0999 V2000
    1.2124    8.2579    0.0000 C   0  0  0  0  0  0  0  0  0  0  0  0
    1.2124    6.8579    0.0000 C   0  0  0  0  0  0  0  0  0  0  0  0
    2.4249    6.1579    0.0000 C   0  0  0  0  0  0  0  0  0  0  0  0
    3.6373    6.8579    0.0000 C   0  0  0  0  0  0  0  0  0  0  0  0
    3.6373    8.2579    0.0000 C   0  0  0  0  0  0  0  0  0  0  0  0
    2.4249    8.9579    0.0000 C   0  0  0  0  0  0  0  0  0  0  0  0
    0.0000    6.1579    0.0000 N   0  0  0  0  0  0  0  0  0  0  0  0
    0.0000    4.7579    0.0000 C   0  0  0  0  0  0  0  0  0  0  0  0
    1.2124    4.0579    0.0000 C   0  0  0  0  0  0  0  0  0  0  0  0
    2.4249    4.7579    0.0000 C   0  0  0  0  0  0  0  0  0  0  0  0
    4.8455    8.9555    0.0000 S   0  0  0  0  0  0  0  0  0  0  0  0
    6.0538    8.2579    0.0000 C   0  0  0  0  0  0  0  0  0  0  0  0
    6.2001    6.8656    0.0000 N   0  0  0  0  0  0  0  0  0  0  0  0
    7.5695    6.5745    0.0000 C   0  0  0  0  0  0  0  0  0  0  0  0
    8.2695    7.7869    0.0000 N   0  0  0  0  0  0  0  0  0  0  0  0
    7.3327    8.8273    0.0000 N   0  0  0  0  0  0  0  0  0  0  0  0
    5.2633    5.8252    0.0000 N   0  0  0  0  0  0  0  0  0  0  0  0
    5.6959    4.4937    0.0000 C   0  0  0  0  0  0  0  0  0  0  0  0
    7.0653    4.2026    0.0000 C   0  0  0  0  0  0  0  0  0  0  0  0
    8.0021    5.2430    0.0000 C   0  0  0  0  0  0  0  0  0  0  0  0
    4.7624    3.4569    0.0000 C   0  0  0  0  0  0  0  0  0  0  0  0
    3.3701    3.6032    0.0000 C   0  0  0  0  0  0  0  0  0  0  0  0
    2.8006    2.3243    0.0000 N   0  0  0  0  0  0  0  0  0  0  0  0
    3.8411    1.3875    0.0000 N   0  0  0  0  0  0  0  0  0  0  0  0
    5.0535    2.0875    0.0000 C   0  0  0  0  0  0  0  0  0  0  0  0
    3.6952    0.0000    0.0000 C   0  0  0  0  0  0  0  0  0  0  0  0
  1  2  2  0  0  0  0
  2  3  1  0  0  0  0
  3  4  2  0  0  0  0
  4  5  1  0  0  0  0
  5  6  2  0  0  0  0
  6  1  1  0  0  0  0
  2  7  1  0  0  0  0
  7  8  2  0  0  0  0
  8  9  1  0  0  0  0
  9 10  2  0  0  0  0
 10  3  1  0  0  0  0
  5 11  1  0  0  0  0
 11 12  1  0  0  0  0
 12 13  1  0  0  0  0
 13 14  1  0  0  0  0
 14 15  2  0  0  0  0
 15 16  1  0  0  0  0
 16 12  2  0  0  0  0
 13 17  1  0  0  0  0
 17 18  2  0  0  0  0
 18 19  1  0  0  0  0
 19 20  2  0  0  0  0
 20 14  1  0  0  0  0
 18 21  1  0  0  0  0
 21 22  1  0  0  0  0
 22 23  2  0  0  0  0
 23 24  1  0  0  0  0
 24 25  1  0  0  0  0
 25 21  2  0  0  0  0
 24 26  1  0  0  0  0
M  END
>  <Mol_ID> (334)
2329

>  <Formula> (334)
C18H13N7S

>  <MolWeight> (334)
359.40772

>  <Cat> (334)
S1112

>  <Name> (334)
SGX-523

>  <Synonyms> (334)
N/A

>  <Target> (334)
c-Met 

>  <Form> (334)
Free Base

>  <CAS> (334)
1022150-57-7

>  <URL> (334)
http://www.selleckchem.com/products/SGX-523.html

$$$$
untitled.cdx
csChFnd80/05071909292D

 31 35  0  0  0  0  0  0  0  0999 V2000
    0.0000    9.1097    0.0000 C   0  0  0  0  0  0  0  0  0  0  0  0
    0.0000    7.7097    0.0000 C   0  0  0  0  0  0  0  0  0  0  0  0
    1.2124    7.0097    0.0000 C   0  0  0  0  0  0  0  0  0  0  0  0
    2.4249    7.7097    0.0000 C   0  0  0  0  0  0  0  0  0  0  0  0
    2.4249    9.1097    0.0000 C   0  0  0  0  0  0  0  0  0  0  0  0
    1.2124    9.8097    0.0000 C   0  0  0  0  0  0  0  0  0  0  0  0
    3.6373    7.0097    0.0000 N   0  0  0  0  0  0  0  0  0  0  0  0
    4.8497    7.7097    0.0000 C   0  0  0  0  0  0  0  0  0  0  0  0
    4.8497    9.1097    0.0000 C   0  0  0  0  0  0  0  0  0  0  0  0
    3.6373    9.8097    0.0000 N   0  0  0  0  0  0  0  0  0  0  0  0
    6.0622    9.8097    0.0000 N   0  0  0  0  0  0  0  0  0  0  0  0
    6.0622    7.0097    0.0000 N   0  0  0  0  0  0  0  0  0  0  0  0
    6.0622   11.2097    0.0000 C   0  0  0  0  0  0  0  0  0  0  0  0
    7.2746   11.9097    0.0000 C   0  0  0  0  0  0  0  0  0  0  0  0
    7.2746   13.3097    0.0000 C   0  0  0  0  0  0  0  0  0  0  0  0
    6.0622   14.0097    0.0000 C   0  0  0  0  0  0  0  0  0  0  0  0
    4.8497   13.3097    0.0000 C   0  0  0  0  0  0  0  0  0  0  0  0
    4.8497   11.9097    0.0000 C   0  0  0  0  0  0  0  0  0  0  0  0
    8.3150   14.2465    0.0000 N   0  0  0  0  0  0  0  0  0  0  0  0
    7.7456   15.5255    0.0000 S   0  0  0  0  0  0  0  0  0  0  0  0
    6.3533   15.3792    0.0000 N   0  0  0  0  0  0  0  0  0  0  0  0
    6.0622    5.6097    0.0000 S   0  0  0  0  0  0  0  0  0  0  0  0
    7.4622    5.6097    0.0000 O   0  0  0  0  0  0  0  0  0  0  0  0
    4.6622    5.6097    0.0000 O   0  0  0  0  0  0  0  0  0  0  0  0
    6.0622    4.2097    0.0000 C   0  0  0  0  0  0  0  0  0  0  0  0
    4.8442    3.5096    0.0000 C   0  0  0  0  0  0  0  0  0  0  0  0
    4.8442    2.1047    0.0000 C   0  0  0  0  0  0  0  0  0  0  0  0
    6.0622    1.4000    0.0000 C   0  0  0  0  0  0  0  0  0  0  0  0
    7.2801    2.1047    0.0000 C   0  0  0  0  0  0  0  0  0  0  0  0
    7.2801    3.5096    0.0000 C   0  0  0  0  0  0  0  0  0  0  0  0
    6.0622    0.0000    0.0000 C   0  0  0  0  0  0  0  0  0  0  0  0
  1  2  2  0  0  0  0
  2  3  1  0  0  0  0
  3  4  2  0  0  0  0
  4  5  1  0  0  0  0
  5  6  2  0  0  0  0
  6  1  1  0  0  0  0
  4  7  1  0  0  0  0
  7  8  2  0  0  0  0
  8  9  1  0  0  0  0
  9 10  2  0  0  0  0
 10  5  1  0  0  0  0
  9 11  1  0  0  0  0
  8 12  1  0  0  0  0
 11 13  1  0  0  0  0
 13 14  2  0  0  0  0
 14 15  1  0  0  0  0
 15 16  1  0  0  0  0
 16 17  1  0  0  0  0
 17 18  2  0  0  0  0
 18 13  1  0  0  0  0
 15 19  2  0  0  0  0
 19 20  1  0  0  0  0
 20 21  1  0  0  0  0
 21 16  2  0  0  0  0
 12 22  1  0  0  0  0
 22 23  2  0  0  0  0
 22 24  2  0  0  0  0
 22 25  1  0  0  0  0
 25 26  2  0  0  0  0
 26 27  1  0  0  0  0
 27 28  2  0  0  0  0
 28 29  1  0  0  0  0
 29 30  2  0  0  0  0
 30 25  1  0  0  0  0
 28 31  1  0  0  0  0
M  END
>  <Mol_ID> (335)
2330

>  <Formula> (335)
C21H16N6O2S2

>  <MolWeight> (335)
448.52074

>  <Cat> (335)
S1118

>  <Name> (335)
XL147 analogue

>  <Synonyms> (335)
SAR245408

>  <Target> (335)
PI3K 

>  <Form> (335)
Free Base

>  <CAS> (335)
956958-53-5

>  <URL> (335)
http://www.selleckchem.com/products/XL147.html

$$$$
s1023.cdx
csChFnd80/05071909292D

 30 31  0  0  0  0  0  0  0  0999 V2000
    6.0622    6.3000    0.0000 C   0  0  0  0  0  0  0  0  0  0  0  0
    6.0622    4.9000    0.0000 C   0  0  0  0  0  0  0  0  0  0  0  0
    7.2746    4.2000    0.0000 C   0  0  0  0  0  0  0  0  0  0  0  0
    8.4870    4.9000    0.0000 C   0  0  0  0  0  0  0  0  0  0  0  0
    8.4870    6.3000    0.0000 C   0  0  0  0  0  0  0  0  0  0  0  0
    7.2746    7.0000    0.0000 C   0  0  0  0  0  0  0  0  0  0  0  0
    9.6995    4.2000    0.0000 C   0  0  0  0  0  0  0  0  0  0  0  0
   10.9119    4.9000    0.0000 N   0  0  0  0  0  0  0  0  0  0  0  0
   10.9119    6.3000    0.0000 C   0  0  0  0  0  0  0  0  0  0  0  0
    9.6995    7.0000    0.0000 N   0  0  0  0  0  0  0  0  0  0  0  0
    9.6995    2.8000    0.0000 N   0  0  0  0  0  0  0  0  0  0  0  0
   10.9119    2.1000    0.0000 C   0  0  0  0  0  0  0  0  0  0  0  0
   10.9119    0.7000    0.0000 C   0  0  0  0  0  0  0  0  0  0  0  0
   12.1244    0.0000    0.0000 C   0  0  0  0  0  0  0  0  0  0  0  0
   13.3368    0.7000    0.0000 C   0  0  0  0  0  0  0  0  0  0  0  0
   13.3368    2.1000    0.0000 C   0  0  0  0  0  0  0  0  0  0  0  0
   12.1244    2.8000    0.0000 C   0  0  0  0  0  0  0  0  0  0  0  0
    4.8497    7.0000    0.0000 O   0  0  0  0  0  0  0  0  0  0  0  0
    3.6373    6.3000    0.0000 C   0  0  0  0  0  0  0  0  0  0  0  0
    2.4249    7.0000    0.0000 C   0  0  0  0  0  0  0  0  0  0  0  0
    1.2124    6.3000    0.0000 O   0  0  0  0  0  0  0  0  0  0  0  0
    4.8497    4.2000    0.0000 O   0  0  0  0  0  0  0  0  0  0  0  0
    3.6373    4.9000    0.0000 C   0  0  0  0  0  0  0  0  0  0  0  0
    2.4249    4.2000    0.0000 C   0  0  0  0  0  0  0  0  0  0  0  0
    1.2124    4.9000    0.0000 O   0  0  0  0  0  0  0  0  0  0  0  0
   14.5492    2.8000    0.0000 C   0  0  0  0  0  0  0  0  0  0  0  0
   15.7617    3.5000    0.0000 C   0  0  0  0  0  0  0  0  0  0  0  0
    0.0000    7.0000    0.0000 C   0  0  0  0  0  0  0  0  0  0  0  0
    0.0000    4.2000    0.0000 C   0  0  0  0  0  0  0  0  0  0  0  0
   13.0409    5.5720    0.0000 Cl  0  0  0  0  0  0  0  0  0  0  0  0
  1  2  2  0  0  0  0
  2  3  1  0  0  0  0
  3  4  2  0  0  0  0
  4  5  1  0  0  0  0
  5  6  2  0  0  0  0
  6  1  1  0  0  0  0
  4  7  1  0  0  0  0
  7  8  2  0  0  0  0
  8  9  1  0  0  0  0
  9 10  2  0  0  0  0
 10  5  1  0  0  0  0
  7 11  1  0  0  0  0
 11 12  1  0  0  0  0
 12 13  2  0  0  0  0
 13 14  1  0  0  0  0
 14 15  2  0  0  0  0
 15 16  1  0  0  0  0
 16 17  2  0  0  0  0
 17 12  1  0  0  0  0
  1 18  1  0  0  0  0
 18 19  1  0  0  0  0
 19 20  1  0  0  0  0
 20 21  1  0  0  0  0
  2 22  1  0  0  0  0
 22 23  1  0  0  0  0
 23 24  1  0  0  0  0
 24 25  1  0  0  0  0
 16 26  1  0  0  0  0
 26 27  3  0  0  0  0
 21 28  1  0  0  0  0
 25 29  1  0  0  0  0
M  END
>  <Mol_ID> (336)
2331

>  <Formula> (336)
C22H24ClN3O4

>  <MolWeight> (336)
429.89666

>  <Cat> (336)
S1023

>  <Name> (336)
Erlotinib(OSI-744)

>  <Synonyms> (336)
(CP358774, NSC 718781) HCl

>  <Target> (336)
EGFR

>  <Form> (336)
Hydrochloride

>  <CAS> (336)
183319-69-9

>  <URL> (336)
http://www.selleckchem.com/products/Erlotinib-Hydrochloride.

$$$$
PIK-75 Hydrochloride.cdx
csChFnd80/05071909292D

 28 29  0  0  0  0  0  0  0  0999 V2000
    1.2082    7.7676    0.0000 C   0  0  0  0  0  0  0  0  0  0  0  0
    1.2082    6.3676    0.0000 C   0  0  0  0  0  0  0  0  0  0  0  0
    2.4207    5.6676    0.0000 C   0  0  0  0  0  0  0  0  0  0  0  0
    3.6331    6.3676    0.0000 N   0  0  0  0  0  0  0  0  0  0  0  0
    3.6331    7.7676    0.0000 C   0  0  0  0  0  0  0  0  0  0  0  0
    2.4207    8.4676    0.0000 C   0  0  0  0  0  0  0  0  0  0  0  0
    4.9646    5.9350    0.0000 C   0  0  0  0  0  0  0  0  0  0  0  0
    5.7875    7.0676    0.0000 C   0  0  0  0  0  0  0  0  0  0  0  0
    4.9646    8.2003    0.0000 N   0  0  0  0  0  0  0  0  0  0  0  0
    0.0000    5.6701    0.0000 Br  0  0  0  0  0  0  0  0  0  0  0  0
    5.3957    4.6081    0.0000 C   0  0  0  0  0  0  0  0  0  0  0  0
    6.7604    4.3181    0.0000 N   0  0  0  0  0  0  0  0  0  0  0  0
    7.1915    2.9912    0.0000 N   0  0  0  0  0  0  0  0  0  0  0  0
    8.5561    2.7012    0.0000 S   0  0  0  0  0  0  0  0  0  0  0  0
    6.2579    1.9544    0.0000 C   0  0  0  0  0  0  0  0  0  0  0  0
    9.9084    2.3388    0.0000 C   0  0  0  0  0  0  0  0  0  0  0  0
    8.9185    4.0535    0.0000 O   0  0  0  0  0  0  0  0  0  0  0  0
    8.1938    1.3489    0.0000 O   0  0  0  0  0  0  0  0  0  0  0  0
   10.2708    0.9865    0.0000 C   0  0  0  0  0  0  0  0  0  0  0  0
   11.6231    0.6242    0.0000 C   0  0  0  0  0  0  0  0  0  0  0  0
   12.6130    1.6141    0.0000 C   0  0  0  0  0  0  0  0  0  0  0  0
   12.2507    2.9664    0.0000 C   0  0  0  0  0  0  0  0  0  0  0  0
   10.8984    3.3288    0.0000 C   0  0  0  0  0  0  0  0  0  0  0  0
    9.2843    0.0000    0.0000 C   0  0  0  0  0  0  0  0  0  0  0  0
   13.2372    3.9529    0.0000 N   0  3  0  0  0  0  0  0  0  0  0  0
   12.8748    5.3052    0.0000 O   0  0  0  0  0  0  0  0  0  0  0  0
   14.5895    3.5906    0.0000 O   0  5  0  0  0  0  0  0  0  0  0  0
    2.9888    1.1030    0.0000 Cl  0  0  0  0  0  0  0  0  0  0  0  0
  1  2  1  0  0  0  0
  2  3  2  0  0  0  0
  3  4  1  0  0  0  0
  4  5  1  0  0  0  0
  5  6  1  0  0  0  0
  6  1  2  0  0  0  0
  4  7  1  0  0  0  0
  7  8  2  0  0  0  0
  8  9  1  0  0  0  0
  9  5  2  0  0  0  0
  2 10  1  0  0  0  0
  7 11  1  0  0  0  0
 11 12  2  0  0  0  0
 12 13  1  0  0  0  0
 13 14  1  0  0  0  0
 13 15  1  0  0  0  0
 14 16  1  0  0  0  0
 14 17  2  0  0  0  0
 14 18  2  0  0  0  0
 16 19  2  0  0  0  0
 19 20  1  0  0  0  0
 20 21  2  0  0  0  0
 21 22  1  0  0  0  0
 22 23  2  0  0  0  0
 23 16  1  0  0  0  0
 19 24  1  0  0  0  0
 22 25  1  0  0  0  0
 25 26  2  0  0  0  0
 25 27  1  0  0  0  0
M  END
>  <Mol_ID> (337)
2334

>  <Formula> (337)
C16H15BrClN5O4S

>  <MolWeight> (337)
488.7434

>  <Cat> (337)
S1205

>  <Name> (337)
PIK-75 

>  <Synonyms> (337)
N/A

>  <Target> (337)
PI3K, DNA-PK

>  <Form> (337)
Hydrochloride

>  <CAS> (337)
372196-77-5

>  <URL> (337)
http://www.selleckchem.com/products/PIK-75-Hydrochloride.html

$$$$
S1037.cdx
csChFnd80/05071909292D

 31 31  0  0  0  0  0  0  0  0999 V2000
    1.2124    2.8000    0.0000 C   0  0  0  0  0  0  0  0  0  0  0  0
    1.2124    1.4000    0.0000 N   0  3  0  0  0  0  0  0  0  0  0  0
    2.4249    0.7000    0.0000 C   0  0  0  0  0  0  0  0  0  0  0  0
    3.6373    1.4000    0.0000 C   0  0  0  0  0  0  0  0  0  0  0  0
    3.6373    2.8000    0.0000 C   0  0  0  0  0  0  0  0  0  0  0  0
    2.4249    3.5000    0.0000 C   0  0  0  0  0  0  0  0  0  0  0  0
    4.8497    3.5000    0.0000 O   0  0  0  0  0  0  0  0  0  0  0  0
    6.0622    2.8000    0.0000 P   0  0  3  0  0  0  0  0  0  0  0  0
    7.2746    3.5000    0.0000 O   0  0  0  0  0  0  0  0  0  0  0  0
    8.4871    2.8000    0.0000 C   0  0  0  0  0  0  0  0  0  0  0  0
    9.6995    3.5000    0.0000 C   0  0  0  0  0  0  0  0  0  0  0  0
   10.9119    2.8000    0.0000 C   0  0  0  0  0  0  0  0  0  0  0  0
   12.1244    3.5000    0.0000 C   0  0  0  0  0  0  0  0  0  0  0  0
   13.3368    2.8000    0.0000 C   0  0  0  0  0  0  0  0  0  0  0  0
   14.5492    3.5000    0.0000 C   0  0  0  0  0  0  0  0  0  0  0  0
   15.7617    2.8000    0.0000 C   0  0  0  0  0  0  0  0  0  0  0  0
   16.9741    3.5000    0.0000 C   0  0  0  0  0  0  0  0  0  0  0  0
   18.1865    2.8000    0.0000 C   0  0  0  0  0  0  0  0  0  0  0  0
   19.3990    3.5000    0.0000 C   0  0  0  0  0  0  0  0  0  0  0  0
    0.0000    0.7000    0.0000 C   0  0  0  0  0  0  0  0  0  0  0  0
    1.2124    0.0000    0.0000 C   0  0  0  0  0  0  0  0  0  0  0  0
    6.0622    1.4000    0.0000 O   0  5  0  0  0  0  0  0  0  0  0  0
    6.0622    4.2000    0.0000 O   0  0  0  0  0  0  0  0  0  0  0  0
   20.6114    2.8000    0.0000 C   0  0  0  0  0  0  0  0  0  0  0  0
   21.8238    3.5000    0.0000 C   0  0  0  0  0  0  0  0  0  0  0  0
   23.0363    2.8000    0.0000 C   0  0  0  0  0  0  0  0  0  0  0  0
   24.2487    3.5000    0.0000 C   0  0  0  0  0  0  0  0  0  0  0  0
   25.4612    2.8000    0.0000 C   0  0  0  0  0  0  0  0  0  0  0  0
   26.6736    3.5000    0.0000 C   0  0  0  0  0  0  0  0  0  0  0  0
   27.8860    2.8000    0.0000 C   0  0  0  0  0  0  0  0  0  0  0  0
   29.0985    3.5000    0.0000 C   0  0  0  0  0  0  0  0  0  0  0  0
  1  2  1  0  0  0  0
  2  3  1  0  0  0  0
  3  4  1  0  0  0  0
  4  5  1  0  0  0  0
  5  6  1  0  0  0  0
  6  1  1  0  0  0  0
  5  7  1  0  0  0  0
  7  8  1  0  0  0  0
  8  9  1  0  0  0  0
  9 10  1  0  0  0  0
 10 11  1  0  0  0  0
 11 12  1  0  0  0  0
 12 13  1  0  0  0  0
 13 14  1  0  0  0  0
 14 15  1  0  0  0  0
 15 16  1  0  0  0  0
 16 17  1  0  0  0  0
 17 18  1  0  0  0  0
 18 19  1  0  0  0  0
  2 20  1  0  0  0  0
  2 21  1  0  0  0  0
  8 22  1  0  0  0  0
  8 23  2  0  0  0  0
 19 24  1  0  0  0  0
 24 25  1  0  0  0  0
 25 26  1  0  0  0  0
 26 27  1  0  0  0  0
 27 28  1  0  0  0  0
 28 29  1  0  0  0  0
 29 30  1  0  0  0  0
 30 31  1  0  0  0  0
M  END
>  <Mol_ID> (338)
2339

>  <Formula> (338)
C25H52NO4P

>  <MolWeight> (338)
461.658441

>  <Cat> (338)
S1037

>  <Name> (338)
Perifosine (KRX-0401)

>  <Synonyms> (338)
NSC639966

>  <Target> (338)
Akt

>  <Form> (338)
Free Base

>  <CAS> (338)
157716-52-4

>  <URL> (338)
http://www.selleckchem.com/products/Perifosine.html

$$$$
bms-707035.cdx
csChFnd80/05071909292D

 24 27  0  0  0  0  0  0  0  0999 V2000
    4.6406    2.9624    0.0000 C   0  0  0  0  0  0  0  0  0  0  0  0
    4.6406    1.5624    0.0000 C   0  0  0  0  0  0  0  0  0  0  0  0
    5.8531    0.8624    0.0000 C   0  0  0  0  0  0  0  0  0  0  0  0
    7.0655    1.5624    0.0000 C   0  0  0  0  0  0  0  0  0  0  0  0
    7.0655    2.9624    0.0000 C   0  0  0  0  0  0  0  0  0  0  0  0
    5.8531    3.6624    0.0000 C   0  0  0  0  0  0  0  0  0  0  0  0
    8.2779    0.8624    0.0000 N   0  0  0  0  0  0  0  0  0  0  0  0
    9.4904    1.5624    0.0000 C   0  0  0  0  0  0  0  0  0  0  0  0
    9.4904    2.9624    0.0000 C   0  0  0  0  0  0  0  0  0  0  0  0
    8.2779    3.6624    0.0000 C   0  0  0  0  0  0  0  0  0  0  0  0
    8.2779    5.0624    0.0000 C   0  0  0  0  0  0  0  0  0  0  0  0
    7.0655    5.7624    0.0000 C   0  0  0  0  0  0  0  0  0  0  0  0
    7.0655    7.1624    0.0000 C   0  0  0  0  0  0  0  0  0  0  0  0
    8.2779    7.8624    0.0000 N   0  0  0  0  0  0  0  0  0  0  0  0
    9.4904    7.1624    0.0000 C   0  0  0  0  0  0  0  0  0  0  0  0
    9.4904    5.7624    0.0000 C   0  0  0  0  0  0  0  0  0  0  0  0
    3.4282    3.6624    0.0000 C   0  0  0  0  0  0  0  0  0  0  0  0
    2.2157    2.9624    0.0000 C   0  0  0  0  0  0  0  0  0  0  0  0
    0.9368    3.5318    0.0000 C   0  0  0  0  0  0  0  0  0  0  0  0
    0.0000    2.4914    0.0000 N   0  0  0  0  0  0  0  0  0  0  0  0
    0.7000    1.2790    0.0000 C   0  0  0  0  0  0  0  0  0  0  0  0
    2.0694    1.5700    0.0000 S   0  0  0  0  0  0  0  0  0  0  0  0
    0.6457    4.9012    0.0000 O   0  0  0  0  0  0  0  0  0  0  0  0
    0.1306    0.0000    0.0000 O   0  0  0  0  0  0  0  0  0  0  0  0
  1  2  2  0  0  0  0
  2  3  1  0  0  0  0
  3  4  2  0  0  0  0
  4  5  1  0  0  0  0
  5  6  2  0  0  0  0
  6  1  1  0  0  0  0
  4  7  1  0  0  0  0
  7  8  2  0  0  0  0
  8  9  1  0  0  0  0
  9 10  2  0  0  0  0
 10  5  1  0  0  0  0
 10 11  1  0  0  0  0
 11 12  2  0  0  0  0
 12 13  1  0  0  0  0
 13 14  2  0  0  0  0
 14 15  1  0  0  0  0
 15 16  2  0  0  0  0
 16 11  1  0  0  0  0
  1 17  1  0  0  0  0
 17 18  2  0  0  0  0
 18 19  1  0  0  0  0
 19 20  1  0  0  0  0
 20 21  1  0  0  0  0
 21 22  1  0  0  0  0
 22 18  1  0  0  0  0
 19 23  2  0  0  0  0
 21 24  2  0  0  0  0
M  END
>  <Mol_ID> (340)
2351

>  <Formula> (340)
C18H11N3O2S

>  <MolWeight> (340)
333.36384

>  <Cat> (340)
S1360

>  <Name> (340)
GSK1059615

>  <Synonyms> (340)
N/A

>  <Target> (340)
PI3K, mTOR

>  <Form> (340)
Free Base

>  <CAS> (340)
958852-01-2

>  <URL> (340)
http://www.selleckchem.com/products/GSK1059615.html

$$$$
LY2228820.cdx
csChFnd80/05071909292D

 41 42  0  0  0  0  0  0  0  0999 V2000
    0.0000    9.4208    0.0000 C   0  0  0  0  0  0  0  0  0  0  0  0
    1.4000    9.4208    0.0000 C   0  0  0  0  0  0  0  0  0  0  0  0
    2.8000    9.4208    0.0000 C   0  0  0  0  0  0  0  0  0  0  0  0
    1.4000   10.8208    0.0000 C   0  0  0  0  0  0  0  0  0  0  0  0
    1.4000    8.0208    0.0000 C   0  0  0  0  0  0  0  0  0  0  0  0
    3.6229    8.2882    0.0000 N   0  0  0  0  0  0  0  0  0  0  0  0
    4.9544    8.7208    0.0000 C   0  0  0  0  0  0  0  0  0  0  0  0
    4.9544   10.1208    0.0000 C   0  0  0  0  0  0  0  0  0  0  0  0
    3.6229   10.5535    0.0000 N   0  0  0  0  0  0  0  0  0  0  0  0
    6.0831   10.9409    0.0000 C   0  0  0  0  0  0  0  0  0  0  0  0
    6.0831    7.9008    0.0000 C   0  0  0  0  0  0  0  0  0  0  0  0
    5.9367    6.5085    0.0000 C   0  0  0  0  0  0  0  0  0  0  0  0
    7.0694    5.6856    0.0000 C   0  0  0  0  0  0  0  0  0  0  0  0
    8.3483    6.2550    0.0000 C   0  0  0  0  0  0  0  0  0  0  0  0
    8.4947    7.6473    0.0000 C   0  0  0  0  0  0  0  0  0  0  0  0
    7.3620    8.4702    0.0000 C   0  0  0  0  0  0  0  0  0  0  0  0
    7.3620   10.3715    0.0000 N   0  0  0  0  0  0  0  0  0  0  0  0
    8.4947   11.1944    0.0000 C   0  0  0  0  0  0  0  0  0  0  0  0
    8.3483   12.5867    0.0000 C   0  0  0  0  0  0  0  0  0  0  0  0
    7.0694   13.1561    0.0000 C   0  0  0  0  0  0  0  0  0  0  0  0
    5.9367   12.3332    0.0000 C   0  0  0  0  0  0  0  0  0  0  0  0
    9.4770    5.4350    0.0000 F   0  0  0  0  0  0  0  0  0  0  0  0
    9.8641   10.9033    0.0000 N   0  0  0  0  0  0  0  0  0  0  0  0
   10.5641   12.1157    0.0000 C   0  0  0  0  0  0  0  0  0  0  0  0
    9.6273   13.1561    0.0000 N   0  0  0  0  0  0  0  0  0  0  0  0
   11.9516   12.2615    0.0000 N   0  0  0  0  0  0  0  0  0  0  0  0
   10.4315    9.6288    0.0000 C   0  0  0  0  0  0  0  0  0  0  0  0
   11.7838    9.2664    0.0000 C   0  0  0  0  0  0  0  0  0  0  0  0
   12.1462   10.6187    0.0000 C   0  0  0  0  0  0  0  0  0  0  0  0
   11.4215    7.9141    0.0000 C   0  0  0  0  0  0  0  0  0  0  0  0
   13.1361    8.9041    0.0000 C   0  0  0  0  0  0  0  0  0  0  0  0
    7.2680    6.5774    0.0000 C   0  0  0  0  0  0  0  0  0  0  0  0
    8.6673    6.5774    0.0000 S   0  0  0  0  0  0  0  0  0  0  0  0
    8.6673    7.9766    0.0000 O   0  0  0  0  0  0  0  0  0  0  0  0
    8.6673    5.1781    0.0000 O   0  0  0  0  0  0  0  0  0  0  0  0
   10.0666    6.5774    0.0000 O   0  0  0  0  0  0  0  0  0  0  0  0
    3.0681    6.5774    0.0000 C   0  0  0  0  0  0  0  0  0  0  0  0
    4.4674    6.5774    0.0000 S   0  0  0  0  0  0  0  0  0  0  0  0
    4.4674    7.9766    0.0000 O   0  0  0  0  0  0  0  0  0  0  0  0
    4.4674    5.1781    0.0000 O   0  0  0  0  0  0  0  0  0  0  0  0
    5.8667    6.5774    0.0000 O   0  0  0  0  0  0  0  0  0  0  0  0
  1  2  1  0  0  0  0
  2  3  1  0  0  0  0
  2  4  1  0  0  0  0
  2  5  1  0  0  0  0
  3  6  2  0  0  0  0
  6  7  1  0  0  0  0
  7  8  2  0  0  0  0
  8  9  1  0  0  0  0
  9  3  1  0  0  0  0
  8 10  1  0  0  0  0
  7 11  1  0  0  0  0
 11 12  2  0  0  0  0
 12 13  1  0  0  0  0
 13 14  2  0  0  0  0
 14 15  1  0  0  0  0
 15 16  2  0  0  0  0
 16 11  1  0  0  0  0
 10 17  2  0  0  0  0
 17 18  1  0  0  0  0
 18 19  2  0  0  0  0
 19 20  1  0  0  0  0
 20 21  2  0  0  0  0
 21 10  1  0  0  0  0
 14 22  1  0  0  0  0
 18 23  1  0  0  0  0
 23 24  1  0  0  0  0
 24 25  2  0  0  0  0
 25 19  1  0  0  0  0
 24 26  1  0  0  0  0
 23 27  1  0  0  0  0
 27 28  1  0  0  0  0
 28 29  1  0  0  0  0
 28 30  1  0  0  0  0
 28 31  1  0  0  0  0
 32 33  1  0  0  0  0
 33 34  2  0  0  0  0
 33 35  2  0  0  0  0
 33 36  1  0  0  0  0
 37 38  1  0  0  0  0
 38 39  2  0  0  0  0
 38 40  2  0  0  0  0
 38 41  1  0  0  0  0
M  END
>  <Mol_ID> (341)
2359

>  <Formula> (341)
C26H37FN6O6S2

>  <MolWeight> (341)
612.7369832

>  <Cat> (341)
S1494

>  <Name> (341)
LY2228820

>  <Synonyms> (341)
N/A

>  <Target> (341)
p38 MAPK

>  <Form> (341)
Dimesylate

>  <CAS> (341)
862507-23-1

>  <URL> (341)
http://www.selleckchem.com/products/LY2228820.html

$$$$
CCT129202.cdx
csChFnd80/05071909292D

 34 38  0  0  0  0  0  0  0  0999 V2000
    1.2082    2.1000    0.0000 C   0  0  0  0  0  0  0  0  0  0  0  0
    1.2082    0.7000    0.0000 C   0  0  0  0  0  0  0  0  0  0  0  0
    2.4207    0.0000    0.0000 N   0  0  0  0  0  0  0  0  0  0  0  0
    3.6331    0.7000    0.0000 C   0  0  0  0  0  0  0  0  0  0  0  0
    3.6331    2.1000    0.0000 C   0  0  0  0  0  0  0  0  0  0  0  0
    2.4207    2.8000    0.0000 C   0  0  0  0  0  0  0  0  0  0  0  0
    4.9646    0.2674    0.0000 N   0  0  0  0  0  0  0  0  0  0  0  0
    5.7875    1.4000    0.0000 C   0  0  0  0  0  0  0  0  0  0  0  0
    4.9646    2.5326    0.0000 N   0  0  0  0  0  0  0  0  0  0  0  0
    0.0000    2.7976    0.0000 Cl  0  0  0  0  0  0  0  0  0  0  0  0
    7.1826    1.4000    0.0000 C   0  0  0  0  0  0  0  0  0  0  0  0
    7.8826    0.1876    0.0000 C   0  0  0  0  0  0  0  0  0  0  0  0
    9.2826    0.1876    0.0000 C   0  0  0  0  0  0  0  0  0  0  0  0
    9.9826    1.4000    0.0000 C   0  0  0  0  0  0  0  0  0  0  0  0
    9.2826    2.6124    0.0000 C   0  0  0  0  0  0  0  0  0  0  0  0
    7.8826    2.6124    0.0000 C   0  0  0  0  0  0  0  0  0  0  0  0
   11.3778    1.4000    0.0000 N   0  0  0  0  0  0  0  0  0  0  0  0
   12.0753    2.6082    0.0000 C   0  0  0  0  0  0  0  0  0  0  0  0
   12.0753    0.1918    0.0000 C   0  0  0  0  0  0  0  0  0  0  0  0
    2.4207    4.1951    0.0000 N   0  0  0  0  0  0  0  0  0  0  0  0
    3.6331    4.8951    0.0000 C   0  0  0  0  0  0  0  0  0  0  0  0
    3.6331    6.2951    0.0000 C   0  0  0  0  0  0  0  0  0  0  0  0
    2.4207    6.9951    0.0000 N   0  0  0  0  0  0  0  0  0  0  0  0
    1.2082    6.2951    0.0000 C   0  0  0  0  0  0  0  0  0  0  0  0
    1.2082    4.8951    0.0000 C   0  0  0  0  0  0  0  0  0  0  0  0
    2.4207    8.3903    0.0000 C   0  0  0  0  0  0  0  0  0  0  0  0
    3.6289    9.0879    0.0000 C   0  0  0  0  0  0  0  0  0  0  0  0
    4.8371    8.3903    0.0000 N   0  0  0  0  0  0  0  0  0  0  0  0
    3.6289   10.4830    0.0000 O   0  0  0  0  0  0  0  0  0  0  0  0
    6.0453    9.0879    0.0000 C   0  0  0  0  0  0  0  0  0  0  0  0
    7.3243    8.5184    0.0000 S   0  0  0  0  0  0  0  0  0  0  0  0
    8.2611    9.5588    0.0000 C   0  0  0  0  0  0  0  0  0  0  0  0
    7.5611   10.7713    0.0000 C   0  0  0  0  0  0  0  0  0  0  0  0
    6.1917   10.4802    0.0000 N   0  0  0  0  0  0  0  0  0  0  0  0
  1  2  2  0  0  0  0
  2  3  1  0  0  0  0
  3  4  2  0  0  0  0
  4  5  1  0  0  0  0
  5  6  2  0  0  0  0
  6  1  1  0  0  0  0
  4  7  1  0  0  0  0
  7  8  1  0  0  0  0
  8  9  2  0  0  0  0
  9  5  1  0  0  0  0
  1 10  1  0  0  0  0
  8 11  1  0  0  0  0
 11 12  2  0  0  0  0
 12 13  1  0  0  0  0
 13 14  2  0  0  0  0
 14 15  1  0  0  0  0
 15 16  2  0  0  0  0
 16 11  1  0  0  0  0
 14 17  1  0  0  0  0
 17 18  1  0  0  0  0
 17 19  1  0  0  0  0
  6 20  1  0  0  0  0
 20 21  1  0  0  0  0
 21 22  1  0  0  0  0
 22 23  1  0  0  0  0
 23 24  1  0  0  0  0
 24 25  1  0  0  0  0
 25 20  1  0  0  0  0
 23 26  1  0  0  0  0
 26 27  1  0  0  0  0
 27 28  1  0  0  0  0
 27 29  2  0  0  0  0
 28 30  1  0  0  0  0
 30 31  1  0  0  0  0
 31 32  1  0  0  0  0
 32 33  2  0  0  0  0
 33 34  1  0  0  0  0
 34 30  2  0  0  0  0
M  END
>  <Mol_ID> (342)
2365

>  <Formula> (342)
C23H25ClN8OS

>  <MolWeight> (342)
497.0156

>  <Cat> (342)
S1519

>  <Name> (342)
CCT129202

>  <Synonyms> (342)
N/A

>  <Target> (342)
Aurora Kinase

>  <Form> (342)
Free Base

>  <CAS> (342)
942947-93-5

>  <URL> (342)
http://www.selleckchem.com/products/CCT129202.html

$$$$
Neratinib.cdx
csChFnd80/05071909292D

 40 43  0  0  0  0  0  0  0  0999 V2000
    7.2536    8.3927    0.0000 C   0  0  0  0  0  0  0  0  0  0  0  0
    7.2536    6.9927    0.0000 C   0  0  0  0  0  0  0  0  0  0  0  0
    8.4660    6.2927    0.0000 C   0  0  0  0  0  0  0  0  0  0  0  0
    9.6784    6.9927    0.0000 C   0  0  0  0  0  0  0  0  0  0  0  0
    9.6784    8.3927    0.0000 C   0  0  0  0  0  0  0  0  0  0  0  0
    8.4660    9.0927    0.0000 C   0  0  0  0  0  0  0  0  0  0  0  0
   10.8909    6.2927    0.0000 C   0  0  0  0  0  0  0  0  0  0  0  0
   12.1033    6.9927    0.0000 C   0  0  0  0  0  0  0  0  0  0  0  0
   12.1033    8.3927    0.0000 C   0  0  0  0  0  0  0  0  0  0  0  0
   10.8909    9.0927    0.0000 N   0  0  0  0  0  0  0  0  0  0  0  0
   13.3115    6.2951    0.0000 C   0  0  0  0  0  0  0  0  0  0  0  0
    6.0453    9.0903    0.0000 O   0  0  0  0  0  0  0  0  0  0  0  0
    4.8371    8.3927    0.0000 C   0  0  0  0  0  0  0  0  0  0  0  0
    3.6247    9.0927    0.0000 C   0  0  0  0  0  0  0  0  0  0  0  0
    6.0453    6.2951    0.0000 N   0  0  0  0  0  0  0  0  0  0  0  0
    6.0453    4.8951    0.0000 C   0  0  0  0  0  0  0  0  0  0  0  0
    4.8371    4.1976    0.0000 C   0  0  0  0  0  0  0  0  0  0  0  0
    3.6289    4.8951    0.0000 C   0  0  0  0  0  0  0  0  0  0  0  0
    2.4165    4.1951    0.0000 C   0  0  0  0  0  0  0  0  0  0  0  0
    7.2536    4.1976    0.0000 O   0  0  0  0  0  0  0  0  0  0  0  0
    1.2082    4.8927    0.0000 N   0  0  0  0  0  0  0  0  0  0  0  0
    0.0000    4.1951    0.0000 C   0  0  0  0  0  0  0  0  0  0  0  0
    1.2082    6.2878    0.0000 C   0  0  0  0  0  0  0  0  0  0  0  0
   10.8909    4.8976    0.0000 N   0  0  0  0  0  0  0  0  0  0  0  0
   12.1033    4.1976    0.0000 C   0  0  0  0  0  0  0  0  0  0  0  0
   12.1033    2.7976    0.0000 C   0  0  0  0  0  0  0  0  0  0  0  0
   13.3157    2.0976    0.0000 C   0  0  0  0  0  0  0  0  0  0  0  0
   14.5282    2.7976    0.0000 C   0  0  0  0  0  0  0  0  0  0  0  0
   14.5282    4.1976    0.0000 C   0  0  0  0  0  0  0  0  0  0  0  0
   13.3157    4.8976    0.0000 C   0  0  0  0  0  0  0  0  0  0  0  0
   15.7364    4.8951    0.0000 Cl  0  0  0  0  0  0  0  0  0  0  0  0
   15.7364    2.1000    0.0000 O   0  0  0  0  0  0  0  0  0  0  0  0
   16.9446    2.7976    0.0000 C   0  0  0  0  0  0  0  0  0  0  0  0
   18.1529    2.1000    0.0000 C   0  0  0  0  0  0  0  0  0  0  0  0
   18.1529    0.7000    0.0000 N   0  0  0  0  0  0  0  0  0  0  0  0
   19.3653    0.0000    0.0000 C   0  0  0  0  0  0  0  0  0  0  0  0
   20.5777    0.7000    0.0000 C   0  0  0  0  0  0  0  0  0  0  0  0
   20.5777    2.1000    0.0000 C   0  0  0  0  0  0  0  0  0  0  0  0
   19.3653    2.8000    0.0000 C   0  0  0  0  0  0  0  0  0  0  0  0
   14.5171    5.6000    0.0000 N   0  0  0  0  0  0  0  0  0  0  0  0
  1  2  2  0  0  0  0
  2  3  1  0  0  0  0
  3  4  2  0  0  0  0
  4  5  1  0  0  0  0
  5  6  2  0  0  0  0
  6  1  1  0  0  0  0
  4  7  1  0  0  0  0
  7  8  2  0  0  0  0
  8  9  1  0  0  0  0
  9 10  2  0  0  0  0
 10  5  1  0  0  0  0
  8 11  1  0  0  0  0
  1 12  1  0  0  0  0
 12 13  1  0  0  0  0
 13 14  1  0  0  0  0
  2 15  1  0  0  0  0
 15 16  1  0  0  0  0
 16 17  1  0  0  0  0
 17 18  2  0  0  0  0
 18 19  1  0  0  0  0
 16 20  2  0  0  0  0
 19 21  1  0  0  0  0
 21 22  1  0  0  0  0
 21 23  1  0  0  0  0
  7 24  1  0  0  0  0
 24 25  1  0  0  0  0
 25 26  2  0  0  0  0
 26 27  1  0  0  0  0
 27 28  2  0  0  0  0
 28 29  1  0  0  0  0
 29 30  2  0  0  0  0
 30 25  1  0  0  0  0
 29 31  1  0  0  0  0
 28 32  1  0  0  0  0
 32 33  1  0  0  0  0
 33 34  1  0  0  0  0
 34 35  2  0  0  0  0
 35 36  1  0  0  0  0
 36 37  2  0  0  0  0
 37 38  1  0  0  0  0
 38 39  2  0  0  0  0
 39 34  1  0  0  0  0
 11 40  3  0  0  0  0
M  END
>  <Mol_ID> (343)
2387

>  <Formula> (343)
C30H29ClN6O3

>  <MolWeight> (343)
557.04266

>  <Cat> (343)
S2150

>  <Name> (343)
Neratinib (HKI-272)

>  <Synonyms> (343)
N/A 

>  <Target> (343)
HER2, EGFR

>  <Form> (343)
Free Base

>  <CAS> (343)
698387-09-6

>  <URL> (343)
http://www.selleckchem.com/products/Neratinib(HKI-272).html

$$$$
R 788.cdx
csChFnd80/05071909292D

 42 43  0  0  0  0  0  0  0  0999 V2000
    2.4165    4.1927    0.0000 C   0  0  0  0  0  0  0  0  0  0  0  0
    2.4165    2.7927    0.0000 C   0  0  0  0  0  0  0  0  0  0  0  0
    3.6289    2.0927    0.0000 C   0  0  0  0  0  0  0  0  0  0  0  0
    4.8413    2.7927    0.0000 C   0  0  0  0  0  0  0  0  0  0  0  0
    4.8413    4.1927    0.0000 C   0  0  0  0  0  0  0  0  0  0  0  0
    3.6289    4.8927    0.0000 C   0  0  0  0  0  0  0  0  0  0  0  0
    1.2082    4.8903    0.0000 O   0  0  0  0  0  0  0  0  0  0  0  0
    0.0000    4.1927    0.0000 C   0  0  0  0  0  0  0  0  0  0  0  0
    1.2082    2.0951    0.0000 O   0  0  0  0  0  0  0  0  0  0  0  0
    0.0000    2.7927    0.0000 C   0  0  0  0  0  0  0  0  0  0  0  0
    3.6289    0.6976    0.0000 O   0  0  0  0  0  0  0  0  0  0  0  0
    2.4207    0.0000    0.0000 C   0  0  0  0  0  0  0  0  0  0  0  0
    6.0496    4.8903    0.0000 N   0  0  0  0  0  0  0  0  0  0  0  0
    7.2578    4.1927    0.0000 C   0  0  0  0  0  0  0  0  0  0  0  0
    7.2578    2.7927    0.0000 N   0  0  0  0  0  0  0  0  0  0  0  0
    8.4702    2.0927    0.0000 C   0  0  0  0  0  0  0  0  0  0  0  0
    9.6827    2.7927    0.0000 C   0  0  0  0  0  0  0  0  0  0  0  0
    9.6827    4.1927    0.0000 C   0  0  0  0  0  0  0  0  0  0  0  0
    8.4702    4.8927    0.0000 N   0  0  0  0  0  0  0  0  0  0  0  0
   10.8909    2.0951    0.0000 F   0  0  0  0  0  0  0  0  0  0  0  0
   10.8909    4.8903    0.0000 N   0  0  0  0  0  0  0  0  0  0  0  0
   12.0991    4.1927    0.0000 C   0  0  0  0  0  0  0  0  0  0  0  0
   12.0991    2.7927    0.0000 C   0  0  0  0  0  0  0  0  0  0  0  0
   13.3115    2.0927    0.0000 C   0  0  0  0  0  0  0  0  0  0  0  0
   14.5240    2.7927    0.0000 C   0  0  0  0  0  0  0  0  0  0  0  0
   14.5240    4.1927    0.0000 C   0  0  0  0  0  0  0  0  0  0  0  0
   13.3115    4.8927    0.0000 N   0  0  0  0  0  0  0  0  0  0  0  0
   15.7364    2.0927    0.0000 O   0  0  0  0  0  0  0  0  0  0  0  0
   16.9489    2.7927    0.0000 C   0  0  0  0  0  0  0  0  0  0  0  0
   16.9489    4.1927    0.0000 C   0  0  0  0  0  0  0  0  0  0  0  0
   15.7364    4.8927    0.0000 N   0  0  0  0  0  0  0  0  0  0  0  0
   18.1571    4.8903    0.0000 O   0  0  0  0  0  0  0  0  0  0  0  0
   18.3011    3.1551    0.0000 C   0  0  0  0  0  0  0  0  0  0  0  0
   17.6489    1.5803    0.0000 C   0  0  0  0  0  0  0  0  0  0  0  0
   15.7364    6.2879    0.0000 C   0  0  0  0  0  0  0  0  0  0  0  0
   16.9489    6.9879    0.0000 O   0  0  0  0  0  0  0  0  0  0  0  0
   16.9489    8.3879    0.0000 P   0  0  0  0  0  0  0  0  0  0  0  0
   15.7406    9.0854    0.0000 O   0  5  0  0  0  0  0  0  0  0  0  0
   18.1571    9.0854    0.0000 O   0  5  0  0  0  0  0  0  0  0  0  0
   16.9489    9.7879    0.0000 O   0  0  0  0  0  0  0  0  0  0  0  0
    9.8505    4.8940    0.0000 Na  0  3  0  0  0  0  0  0  0  0  0  0
    8.4506    4.8940    0.0000 Na  0  3  0  0  0  0  0  0  0  0  0  0
  1  2  2  0  0  0  0
  2  3  1  0  0  0  0
  3  4  2  0  0  0  0
  4  5  1  0  0  0  0
  5  6  2  0  0  0  0
  6  1  1  0  0  0  0
  1  7  1  0  0  0  0
  7  8  1  0  0  0  0
  2  9  1  0  0  0  0
  9 10  1  0  0  0  0
  3 11  1  0  0  0  0
 11 12  1  0  0  0  0
  5 13  1  0  0  0  0
 13 14  1  0  0  0  0
 14 15  2  0  0  0  0
 15 16  1  0  0  0  0
 16 17  2  0  0  0  0
 17 18  1  0  0  0  0
 18 19  2  0  0  0  0
 19 14  1  0  0  0  0
 17 20  1  0  0  0  0
 18 21  1  0  0  0  0
 21 22  1  0  0  0  0
 22 23  2  0  0  0  0
 23 24  1  0  0  0  0
 24 25  2  0  0  0  0
 25 26  1  0  0  0  0
 26 27  2  0  0  0  0
 27 22  1  0  0  0  0
 25 28  1  0  0  0  0
 28 29  1  0  0  0  0
 29 30  1  0  0  0  0
 30 31  1  0  0  0  0
 31 26  1  0  0  0  0
 30 32  2  0  0  0  0
 29 33  1  0  0  0  0
 29 34  1  0  0  0  0
 31 35  1  0  0  0  0
 35 36  1  0  0  0  0
 36 37  1  0  0  0  0
 37 38  1  0  0  0  0
 37 39  1  0  0  0  0
 37 40  2  0  0  0  0
M  END
>  <Mol_ID> (344)
2388

>  <Formula> (344)
C23H24FN6Na2O9P

>  <MolWeight> (344)
624.4231642

>  <Cat> (344)
S2206

>  <Name> (344)
R935788 (Fostamatinib disodium)

>  <Synonyms> (344)
N/A 

>  <Target> (344)
Syk

>  <Form> (344)
Sodium Salt

>  <CAS> (344)
1025687-58-4

>  <URL> (344)
http://www.selleckchem.com/products/R788(Fostamatinib-disodium).html

$$$$
untitled.cdx
csChFnd80/05071909292D

 29 31  0  0  0  0  0  0  0  0999 V2000
    0.0000    4.1976    0.0000 C   0  0  0  0  0  0  0  0  0  0  0  0
    0.0000    2.7976    0.0000 C   0  0  0  0  0  0  0  0  0  0  0  0
    1.2124    2.0976    0.0000 C   0  0  0  0  0  0  0  0  0  0  0  0
    2.4249    2.7976    0.0000 C   0  0  0  0  0  0  0  0  0  0  0  0
    2.4249    4.1976    0.0000 C   0  0  0  0  0  0  0  0  0  0  0  0
    1.2124    4.8976    0.0000 C   0  0  0  0  0  0  0  0  0  0  0  0
    1.2124    0.7024    0.0000 F   0  0  0  0  0  0  0  0  0  0  0  0
    3.6331    4.8951    0.0000 F   0  0  0  0  0  0  0  0  0  0  0  0
    3.6331    2.1000    0.0000 N   0  0  0  0  0  0  0  0  0  0  0  0
    4.8413    2.7976    0.0000 C   0  0  0  0  0  0  0  0  0  0  0  0
    3.6331    0.7049    0.0000 C   0  0  0  0  0  0  0  0  0  0  0  0
    4.8413    0.0073    0.0000 O   0  0  0  0  0  0  0  0  0  0  0  0
    2.4249    0.0073    0.0000 N   0  0  0  0  0  0  0  0  0  0  0  0
    6.0538    2.0976    0.0000 N   0  0  0  0  0  0  0  0  0  0  0  0
    7.2662    2.7976    0.0000 C   0  0  0  0  0  0  0  0  0  0  0  0
    7.2662    4.1976    0.0000 C   0  0  0  0  0  0  0  0  0  0  0  0
    6.0538    4.8976    0.0000 C   0  0  0  0  0  0  0  0  0  0  0  0
    4.8413    4.1976    0.0000 C   0  0  0  0  0  0  0  0  0  0  0  0
    8.4744    4.8951    0.0000 C   0  0  0  0  0  0  0  0  0  0  0  0
    9.6826    4.1976    0.0000 N   0  0  0  0  0  0  0  0  0  0  0  0
    8.4744    6.2903    0.0000 O   0  0  0  0  0  0  0  0  0  0  0  0
    8.4744    2.1000    0.0000 C   0  0  0  0  0  0  0  0  0  0  0  0
    8.4744    0.7000    0.0000 C   0  0  0  0  0  0  0  0  0  0  0  0
    9.6869    0.0000    0.0000 C   0  0  0  0  0  0  0  0  0  0  0  0
   10.8993    0.7000    0.0000 C   0  0  0  0  0  0  0  0  0  0  0  0
   10.8993    2.1000    0.0000 C   0  0  0  0  0  0  0  0  0  0  0  0
    9.6869    2.8000    0.0000 C   0  0  0  0  0  0  0  0  0  0  0  0
    7.2662    0.0024    0.0000 F   0  0  0  0  0  0  0  0  0  0  0  0
   12.1075    0.0024    0.0000 F   0  0  0  0  0  0  0  0  0  0  0  0
  1  2  2  0  0  0  0
  2  3  1  0  0  0  0
  3  4  2  0  0  0  0
  4  5  1  0  0  0  0
  5  6  2  0  0  0  0
  6  1  1  0  0  0  0
  3  7  1  0  0  0  0
  5  8  1  0  0  0  0
  4  9  1  0  0  0  0
  9 10  1  0  0  0  0
  9 11  1  0  0  0  0
 11 12  2  0  0  0  0
 11 13  1  0  0  0  0
 10 14  2  0  0  0  0
 14 15  1  0  0  0  0
 15 16  2  0  0  0  0
 16 17  1  0  0  0  0
 17 18  2  0  0  0  0
 18 10  1  0  0  0  0
 16 19  1  0  0  0  0
 19 20  1  0  0  0  0
 19 21  2  0  0  0  0
 15 22  1  0  0  0  0
 22 23  2  0  0  0  0
 23 24  1  0  0  0  0
 24 25  2  0  0  0  0
 25 26  1  0  0  0  0
 26 27  2  0  0  0  0
 27 22  1  0  0  0  0
 23 28  1  0  0  0  0
 25 29  1  0  0  0  0
M  END
>  <Mol_ID> (345)
2400

>  <Formula> (345)
C19H12F4N4O2

>  <MolWeight> (345)
404.3177928

>  <Cat> (345)
S6005

>  <Name> (345)
VX-702

>  <Synonyms> (345)
N/A

>  <Target> (345)
p38 MAPK 

>  <Form> (345)
Free Base

>  <CAS> (345)
745833-23-2

>  <URL> (345)
http://www.selleckchem.com/products/VX-702.html

$$$$
PK-1587.cdx
csChFnd80/05071909292D

 45 50  0  0  0  0  0  0  0  0999 V2000
    3.6331    5.5903    0.0000 N   0  0  0  0  0  0  0  0  0  0  0  0
    3.6331    4.1903    0.0000 C   0  0  0  0  0  0  0  0  0  0  0  0
    4.8455    3.4903    0.0000 N   0  0  0  0  0  0  0  0  0  0  0  0
    6.0580    4.1903    0.0000 C   0  0  0  0  0  0  0  0  0  0  0  0
    6.0580    5.5903    0.0000 N   0  0  0  0  0  0  0  0  0  0  0  0
    4.8455    6.2903    0.0000 C   0  0  0  0  0  0  0  0  0  0  0  0
    2.4249    3.4927    0.0000 N   0  0  0  0  0  0  0  0  0  0  0  0
    4.8455    7.6854    0.0000 N   0  0  0  0  0  0  0  0  0  0  0  0
    6.0580    8.3854    0.0000 C   0  0  0  0  0  0  0  0  0  0  0  0
    6.0580    9.7854    0.0000 C   0  0  0  0  0  0  0  0  0  0  0  0
    4.8455   10.4854    0.0000 O   0  0  0  0  0  0  0  0  0  0  0  0
    3.6331    9.7854    0.0000 C   0  0  0  0  0  0  0  0  0  0  0  0
    3.6331    8.3854    0.0000 C   0  0  0  0  0  0  0  0  0  0  0  0
    1.2124    4.1927    0.0000 C   0  0  0  0  0  0  0  0  0  0  0  0
    0.0000    3.4927    0.0000 C   0  0  0  0  0  0  0  0  0  0  0  0
    0.0000    2.0927    0.0000 O   0  0  0  0  0  0  0  0  0  0  0  0
    1.2124    1.3927    0.0000 C   0  0  0  0  0  0  0  0  0  0  0  0
    2.4249    2.0927    0.0000 C   0  0  0  0  0  0  0  0  0  0  0  0
    7.2662    3.4927    0.0000 C   0  0  0  0  0  0  0  0  0  0  0  0
    7.2662    2.0927    0.0000 C   0  0  0  0  0  0  0  0  0  0  0  0
    8.4786    1.3927    0.0000 C   0  0  0  0  0  0  0  0  0  0  0  0
    9.6911    2.0927    0.0000 C   0  0  0  0  0  0  0  0  0  0  0  0
    9.6911    3.4927    0.0000 C   0  0  0  0  0  0  0  0  0  0  0  0
    8.4786    4.1927    0.0000 C   0  0  0  0  0  0  0  0  0  0  0  0
   10.8993    1.3951    0.0000 N   0  0  0  0  0  0  0  0  0  0  0  0
   12.1075    2.0927    0.0000 C   0  0  0  0  0  0  0  0  0  0  0  0
   13.3157    1.3951    0.0000 N   0  0  0  0  0  0  0  0  0  0  0  0
   14.5240    2.0927    0.0000 C   0  0  0  0  0  0  0  0  0  0  0  0
   12.1075    3.4878    0.0000 O   0  0  0  0  0  0  0  0  0  0  0  0
   15.7364    1.3927    0.0000 C   0  0  0  0  0  0  0  0  0  0  0  0
   16.9488    2.0927    0.0000 C   0  0  0  0  0  0  0  0  0  0  0  0
   16.9488    3.4927    0.0000 C   0  0  0  0  0  0  0  0  0  0  0  0
   15.7364    4.1927    0.0000 C   0  0  0  0  0  0  0  0  0  0  0  0
   14.5240    3.4927    0.0000 C   0  0  0  0  0  0  0  0  0  0  0  0
   18.1571    4.1903    0.0000 C   0  0  0  0  0  0  0  0  0  0  0  0
   19.3653    3.4927    0.0000 N   0  0  0  0  0  0  0  0  0  0  0  0
   18.1571    5.5854    0.0000 O   0  0  0  0  0  0  0  0  0  0  0  0
   19.3653    2.0927    0.0000 C   0  0  0  0  0  0  0  0  0  0  0  0
   20.5777    1.3927    0.0000 C   0  0  0  0  0  0  0  0  0  0  0  0
   21.7902    2.0927    0.0000 C   0  0  0  0  0  0  0  0  0  0  0  0
   21.7902    3.4927    0.0000 C   0  0  0  0  0  0  0  0  0  0  0  0
   20.5777    4.1927    0.0000 C   0  0  0  0  0  0  0  0  0  0  0  0
   22.9984    1.3951    0.0000 N   0  0  0  0  0  0  0  0  0  0  0  0
   24.2066    2.0927    0.0000 C   0  0  0  0  0  0  0  0  0  0  0  0
   22.9984    0.0000    0.0000 C   0  0  0  0  0  0  0  0  0  0  0  0
  1  2  2  0  0  0  0
  2  3  1  0  0  0  0
  3  4  2  0  0  0  0
  4  5  1  0  0  0  0
  5  6  2  0  0  0  0
  6  1  1  0  0  0  0
  2  7  1  0  0  0  0
  6  8  1  0  0  0  0
  8  9  1  0  0  0  0
  9 10  1  0  0  0  0
 10 11  1  0  0  0  0
 11 12  1  0  0  0  0
 12 13  1  0  0  0  0
 13  8  1  0  0  0  0
  7 14  1  0  0  0  0
 14 15  1  0  0  0  0
 15 16  1  0  0  0  0
 16 17  1  0  0  0  0
 17 18  1  0  0  0  0
 18  7  1  0  0  0  0
  4 19  1  0  0  0  0
 19 20  2  0  0  0  0
 20 21  1  0  0  0  0
 21 22  2  0  0  0  0
 22 23  1  0  0  0  0
 23 24  2  0  0  0  0
 24 19  1  0  0  0  0
 22 25  1  0  0  0  0
 25 26  1  0  0  0  0
 26 27  1  0  0  0  0
 27 28  1  0  0  0  0
 26 29  2  0  0  0  0
 28 30  2  0  0  0  0
 30 31  1  0  0  0  0
 31 32  2  0  0  0  0
 32 33  1  0  0  0  0
 33 34  2  0  0  0  0
 34 28  1  0  0  0  0
 32 35  1  0  0  0  0
 35 36  1  0  0  0  0
 35 37  2  0  0  0  0
 36 38  1  0  0  0  0
 38 39  1  0  0  0  0
 39 40  1  0  0  0  0
 40 41  1  0  0  0  0
 41 42  1  0  0  0  0
 42 36  1  0  0  0  0
 40 43  1  0  0  0  0
 43 44  1  0  0  0  0
 43 45  1  0  0  0  0
M  END
>  <Mol_ID> (346)
2406

>  <Formula> (346)
C32H41N9O4

>  <MolWeight> (346)
615.72584

>  <Cat> (346)
S2628

>  <Name> (346)
PF-05212384 (PKI-587)

>  <Synonyms> (346)
N/A 

>  <Target> (346)
mTOR, PI3K

>  <Form> (346)
Free Base

>  <CAS> (346)
1197160-78-3

>  <URL> (346)
http://www.selleckchem.com/products/pki587.html

$$$$
NU-7441(KU-57788).cdx
csChFnd80/05071909292D

 30 35  0  0  0  0  0  0  0  0999 V2000
    3.6331    6.2951    0.0000 C   0  0  0  0  0  0  0  0  0  0  0  0
    3.6331    4.8951    0.0000 C   0  0  0  0  0  0  0  0  0  0  0  0
    4.8455    4.1951    0.0000 O   0  0  0  0  0  0  0  0  0  0  0  0
    6.0580    4.8951    0.0000 C   0  0  0  0  0  0  0  0  0  0  0  0
    6.0580    6.2951    0.0000 C   0  0  0  0  0  0  0  0  0  0  0  0
    4.8455    6.9951    0.0000 C   0  0  0  0  0  0  0  0  0  0  0  0
    7.2704    4.1951    0.0000 C   0  0  0  0  0  0  0  0  0  0  0  0
    8.4828    4.8951    0.0000 C   0  0  0  0  0  0  0  0  0  0  0  0
    8.4828    6.2951    0.0000 C   0  0  0  0  0  0  0  0  0  0  0  0
    7.2704    6.9951    0.0000 C   0  0  0  0  0  0  0  0  0  0  0  0
    2.4249    4.1976    0.0000 N   0  0  0  0  0  0  0  0  0  0  0  0
    4.8455    8.3903    0.0000 O   0  0  0  0  0  0  0  0  0  0  0  0
    1.2124    4.8976    0.0000 C   0  0  0  0  0  0  0  0  0  0  0  0
    0.0000    4.1976    0.0000 C   0  0  0  0  0  0  0  0  0  0  0  0
    0.0000    2.7976    0.0000 O   0  0  0  0  0  0  0  0  0  0  0  0
    1.2124    2.0976    0.0000 C   0  0  0  0  0  0  0  0  0  0  0  0
    2.4249    2.7976    0.0000 C   0  0  0  0  0  0  0  0  0  0  0  0
    7.2704    2.8000    0.0000 C   0  0  0  0  0  0  0  0  0  0  0  0
    6.0580    2.1000    0.0000 C   0  0  0  0  0  0  0  0  0  0  0  0
    6.0580    0.7000    0.0000 C   0  0  0  0  0  0  0  0  0  0  0  0
    7.2704    0.0000    0.0000 C   0  0  0  0  0  0  0  0  0  0  0  0
    8.4828    0.7000    0.0000 C   0  0  0  0  0  0  0  0  0  0  0  0
    8.4828    2.1000    0.0000 C   0  0  0  0  0  0  0  0  0  0  0  0
    9.6949    2.8025    0.0000 S   0  0  0  0  0  0  0  0  0  0  0  0
   10.9093    2.1000    0.0000 C   0  0  0  0  0  0  0  0  0  0  0  0
   10.9093    0.7000    0.0000 C   0  0  0  0  0  0  0  0  0  0  0  0
   12.1218    0.0000    0.0000 C   0  0  0  0  0  0  0  0  0  0  0  0
   13.3342    0.7000    0.0000 C   0  0  0  0  0  0  0  0  0  0  0  0
   13.3342    2.1000    0.0000 C   0  0  0  0  0  0  0  0  0  0  0  0
   12.1218    2.8000    0.0000 C   0  0  0  0  0  0  0  0  0  0  0  0
  1  2  2  0  0  0  0
  2  3  1  0  0  0  0
  3  4  1  0  0  0  0
  4  5  2  0  0  0  0
  5  6  1  0  0  0  0
  6  1  1  0  0  0  0
  4  7  1  0  0  0  0
  7  8  2  0  0  0  0
  8  9  1  0  0  0  0
  9 10  2  0  0  0  0
 10  5  1  0  0  0  0
  2 11  1  0  0  0  0
  6 12  2  0  0  0  0
 11 13  1  0  0  0  0
 13 14  1  0  0  0  0
 14 15  1  0  0  0  0
 15 16  1  0  0  0  0
 16 17  1  0  0  0  0
 17 11  1  0  0  0  0
  7 18  1  0  0  0  0
 18 19  2  0  0  0  0
 19 20  1  0  0  0  0
 20 21  2  0  0  0  0
 21 22  1  0  0  0  0
 23 18  1  0  0  0  0
 22 23  2  0  0  0  0
 23 24  1  0  0  0  0
 24 25  1  0  0  0  0
 25 26  2  0  0  0  0
 22 26  1  0  0  0  0
 26 27  1  0  0  0  0
 27 28  2  0  0  0  0
 28 29  1  0  0  0  0
 29 30  2  0  0  0  0
 30 25  1  0  0  0  0
M  END
>  <Mol_ID> (347)
2410

>  <Formula> (347)
C25H19NO3S

>  <MolWeight> (347)
413.48826

>  <Cat> (347)
S2638

>  <Name> (347)
NU7441(KU-57788)

>  <Synonyms> (347)
N/A 

>  <Target> (347)
DNA-PK, PI3K

>  <Form> (347)
Free Base

>  <CAS> (347)
503468-95-9 

>  <URL> (347)
http://www.selleckchem.com/products/nu7441.html

$$$$
SCH 900776.cdx
csChFnd80/05071909292D

 23 26  0  0  0  0  0  0  0  0999 V2000
    5.9324    6.2951    0.0000 C   0  0  0  0  0  0  0  0  0  0  0  0
    5.9324    4.8951    0.0000 N   0  0  0  0  0  0  0  0  0  0  0  0
    7.1449    4.1951    0.0000 C   0  0  0  0  0  0  0  0  0  0  0  0
    8.3573    4.8951    0.0000 C   0  0  0  0  0  0  0  0  0  0  0  0
    8.3573    6.2951    0.0000 C   0  0  0  0  0  0  0  0  0  0  0  0
    7.1449    6.9951    0.0000 N   0  0  0  0  0  0  0  0  0  0  0  0
    7.1449    2.8000    0.0000 C   0  0  1  0  0  0  0  0  0  0  0  0
    5.9324    2.1000    0.0000 C   0  0  0  0  0  0  0  0  0  0  0  0
    5.9324    0.7000    0.0000 N   0  0  0  0  0  0  0  0  0  0  0  0
    7.1449    0.0000    0.0000 C   0  0  0  0  0  0  0  0  0  0  0  0
    8.3573    0.7000    0.0000 C   0  0  0  0  0  0  0  0  0  0  0  0
    8.3573    2.1000    0.0000 C   0  0  0  0  0  0  0  0  0  0  0  0
    9.5655    6.9927    0.0000 N   0  0  0  0  0  0  0  0  0  0  0  0
    9.5655    4.1976    0.0000 Br  0  0  0  0  0  0  0  0  0  0  0  0
    6.8538    8.3645    0.0000 N   0  0  0  0  0  0  0  0  0  0  0  0
    5.4614    8.5109    0.0000 C   0  0  0  0  0  0  0  0  0  0  0  0
    4.8920    7.2319    0.0000 C   0  0  0  0  0  0  0  0  0  0  0  0
    3.5274    6.9419    0.0000 C   0  0  0  0  0  0  0  0  0  0  0  0
    2.4870    7.8786    0.0000 C   0  0  0  0  0  0  0  0  0  0  0  0
    1.2745    7.1786    0.0000 N   0  0  0  0  0  0  0  0  0  0  0  0
    1.5656    5.8092    0.0000 N   0  0  0  0  0  0  0  0  0  0  0  0
    2.9579    5.6629    0.0000 C   0  0  0  0  0  0  0  0  0  0  0  0
    0.0000    7.7461    0.0000 C   0  0  0  0  0  0  0  0  0  0  0  0
  1  2  1  0  0  0  0
  2  3  2  0  0  0  0
  3  4  1  0  0  0  0
  4  5  2  0  0  0  0
  5  6  1  0  0  0  0
  6  1  1  0  0  0  0
  7  3  1  6  0  0  0
  7  8  1  0  0  0  0
  8  9  1  0  0  0  0
  9 10  1  0  0  0  0
 10 11  1  0  0  0  0
 11 12  1  0  0  0  0
 12  7  1  0  0  0  0
  5 13  1  0  0  0  0
  4 14  1  0  0  0  0
  6 15  1  0  0  0  0
 15 16  2  0  0  0  0
 16 17  1  0  0  0  0
 17  1  2  0  0  0  0
 17 18  1  0  0  0  0
 18 19  2  0  0  0  0
 19 20  1  0  0  0  0
 20 21  1  0  0  0  0
 21 22  2  0  0  0  0
 22 18  1  0  0  0  0
 20 23  1  0  0  0  0
M  END
>  <Mol_ID> (348)
2411

>  <Formula> (348)
C15H18BrN7

>  <MolWeight> (348)
376.25432

>  <Cat> (348)
S2735

>  <Name> (348)
MK-8776 (SCH 900776)

>  <Synonyms> (348)
N/A

>  <Target> (348)
CHK

>  <Form> (348)
Free Base

>  <CAS> (348)
891494-63-6

>  <URL> (348)
http://www.selleckchem.com/products/sch-900776.html

$$$$
CCT137690.cdx
csChFnd80/05071909292D

 36 41  0  0  0  0  0  0  0  0999 V2000
    2.2115    2.1000    0.0000 C   0  0  0  0  0  0  0  0  0  0  0  0
    2.2115    0.7000    0.0000 C   0  0  0  0  0  0  0  0  0  0  0  0
    3.4240    0.0000    0.0000 N   0  0  0  0  0  0  0  0  0  0  0  0
    4.6364    0.7000    0.0000 C   0  0  0  0  0  0  0  0  0  0  0  0
    4.6364    2.1000    0.0000 C   0  0  0  0  0  0  0  0  0  0  0  0
    3.4240    2.8000    0.0000 C   0  0  0  0  0  0  0  0  0  0  0  0
    5.9679    0.2674    0.0000 N   0  0  0  0  0  0  0  0  0  0  0  0
    6.7908    1.4000    0.0000 C   0  0  0  0  0  0  0  0  0  0  0  0
    5.9679    2.5326    0.0000 N   0  0  0  0  0  0  0  0  0  0  0  0
    1.0033    2.7976    0.0000 Br  0  0  0  0  0  0  0  0  0  0  0  0
    8.1859    1.4000    0.0000 C   0  0  0  0  0  0  0  0  0  0  0  0
    3.4240    4.1951    0.0000 N   0  0  0  0  0  0  0  0  0  0  0  0
    4.6364    4.8951    0.0000 C   0  0  0  0  0  0  0  0  0  0  0  0
    4.6364    6.2951    0.0000 C   0  0  0  0  0  0  0  0  0  0  0  0
    3.4240    6.9951    0.0000 N   0  0  0  0  0  0  0  0  0  0  0  0
    2.2115    6.2951    0.0000 C   0  0  0  0  0  0  0  0  0  0  0  0
    2.2115    4.8951    0.0000 C   0  0  0  0  0  0  0  0  0  0  0  0
    8.8859    0.1876    0.0000 C   0  0  0  0  0  0  0  0  0  0  0  0
   10.2859    0.1876    0.0000 C   0  0  0  0  0  0  0  0  0  0  0  0
   10.9859    1.4000    0.0000 C   0  0  0  0  0  0  0  0  0  0  0  0
   10.2859    2.6124    0.0000 C   0  0  0  0  0  0  0  0  0  0  0  0
    8.8859    2.6124    0.0000 C   0  0  0  0  0  0  0  0  0  0  0  0
   12.3811    1.4000    0.0000 N   0  0  0  0  0  0  0  0  0  0  0  0
   13.0811    0.1876    0.0000 C   0  0  0  0  0  0  0  0  0  0  0  0
   14.4811    0.1876    0.0000 C   0  0  0  0  0  0  0  0  0  0  0  0
   15.1811    1.4000    0.0000 N   0  0  0  0  0  0  0  0  0  0  0  0
   14.4811    2.6124    0.0000 C   0  0  0  0  0  0  0  0  0  0  0  0
   13.0811    2.6124    0.0000 C   0  0  0  0  0  0  0  0  0  0  0  0
   16.5762    1.4000    0.0000 C   0  0  0  0  0  0  0  0  0  0  0  0
    3.4240    8.3903    0.0000 C   0  0  0  0  0  0  0  0  0  0  0  0
    2.2157    9.0879    0.0000 C   0  0  0  0  0  0  0  0  0  0  0  0
    2.0694   10.4802    0.0000 C   0  0  0  0  0  0  0  0  0  0  0  0
    0.7000   10.7713    0.0000 C   0  0  0  0  0  0  0  0  0  0  0  0
    0.0000    9.5588    0.0000 O   0  0  0  0  0  0  0  0  0  0  0  0
    0.9368    8.5184    0.0000 N   0  0  0  0  0  0  0  0  0  0  0  0
    0.1325   12.0458    0.0000 C   0  0  0  0  0  0  0  0  0  0  0  0
  1  2  2  0  0  0  0
  2  3  1  0  0  0  0
  3  4  2  0  0  0  0
  4  5  1  0  0  0  0
  5  6  2  0  0  0  0
  6  1  1  0  0  0  0
  4  7  1  0  0  0  0
  7  8  1  0  0  0  0
  8  9  2  0  0  0  0
  9  5  1  0  0  0  0
  1 10  1  0  0  0  0
  8 11  1  0  0  0  0
  6 12  1  0  0  0  0
 12 13  1  0  0  0  0
 13 14  1  0  0  0  0
 14 15  1  0  0  0  0
 15 16  1  0  0  0  0
 16 17  1  0  0  0  0
 17 12  1  0  0  0  0
 11 18  2  0  0  0  0
 18 19  1  0  0  0  0
 19 20  2  0  0  0  0
 20 21  1  0  0  0  0
 21 22  2  0  0  0  0
 22 11  1  0  0  0  0
 20 23  1  0  0  0  0
 23 24  1  0  0  0  0
 24 25  1  0  0  0  0
 25 26  1  0  0  0  0
 26 27  1  0  0  0  0
 27 28  1  0  0  0  0
 28 23  1  0  0  0  0
 26 29  1  0  0  0  0
 15 30  1  0  0  0  0
 30 31  1  0  0  0  0
 31 32  1  0  0  0  0
 32 33  2  0  0  0  0
 33 34  1  0  0  0  0
 34 35  1  0  0  0  0
 35 31  2  0  0  0  0
 33 36  1  0  0  0  0
M  END
>  <Mol_ID> (349)
2428

>  <Formula> (349)
C26H31BrN8O

>  <MolWeight> (349)
551.48134

>  <Cat> (349)
S2744

>  <Name> (349)
CCT137690

>  <Synonyms> (349)
N/A

>  <Target> (349)
Aurora Kinase

>  <Form> (349)
Free Base

>  <CAS> (349)
1095382-05-0

>  <URL> (349)
http://www.selleckchem.com/products/cct137690.html

$$$$
LY2109761.cdx
csChFnd80/05071909292D

 33 38  0  0  0  0  0  0  0  0999 V2000
    4.1777    2.1000    0.0000 C   0  0  0  0  0  0  0  0  0  0  0  0
    4.1777    0.7000    0.0000 C   0  0  0  0  0  0  0  0  0  0  0  0
    5.3901    0.0000    0.0000 C   0  0  0  0  0  0  0  0  0  0  0  0
    6.6026    0.7000    0.0000 C   0  0  0  0  0  0  0  0  0  0  0  0
    6.6026    2.1000    0.0000 C   0  0  0  0  0  0  0  0  0  0  0  0
    5.3901    2.8000    0.0000 C   0  0  0  0  0  0  0  0  0  0  0  0
    2.9652    2.8000    0.0000 C   0  0  0  0  0  0  0  0  0  0  0  0
    1.7528    2.1000    0.0000 C   0  0  0  0  0  0  0  0  0  0  0  0
    1.7528    0.7000    0.0000 C   0  0  0  0  0  0  0  0  0  0  0  0
    2.9652    0.0000    0.0000 N   0  0  0  0  0  0  0  0  0  0  0  0
    7.8108    0.0024    0.0000 O   0  0  0  0  0  0  0  0  0  0  0  0
    9.0190    0.7000    0.0000 C   0  0  0  0  0  0  0  0  0  0  0  0
   10.2272    0.0024    0.0000 C   0  0  0  0  0  0  0  0  0  0  0  0
   11.4355    0.7000    0.0000 N   0  0  0  0  0  0  0  0  0  0  0  0
   12.6479    0.0000    0.0000 C   0  0  0  0  0  0  0  0  0  0  0  0
   13.8603    0.7000    0.0000 C   0  0  0  0  0  0  0  0  0  0  0  0
   13.8603    2.1000    0.0000 O   0  0  0  0  0  0  0  0  0  0  0  0
   12.6479    2.8000    0.0000 C   0  0  0  0  0  0  0  0  0  0  0  0
   11.4355    2.1000    0.0000 C   0  0  0  0  0  0  0  0  0  0  0  0
    2.9652    4.1951    0.0000 C   0  0  0  0  0  0  0  0  0  0  0  0
    4.0979    5.0180    0.0000 C   0  0  0  0  0  0  0  0  0  0  0  0
    3.6652    6.3495    0.0000 N   0  0  0  0  0  0  0  0  0  0  0  0
    2.2652    6.3495    0.0000 N   0  0  0  0  0  0  0  0  0  0  0  0
    1.8326    5.0180    0.0000 C   0  0  0  0  0  0  0  0  0  0  0  0
    1.1326    7.1724    0.0000 C   0  0  0  0  0  0  0  0  0  0  0  0
    0.0000    6.3495    0.0000 C   0  0  0  0  0  0  0  0  0  0  0  0
    0.4326    5.0180    0.0000 C   0  0  0  0  0  0  0  0  0  0  0  0
    5.4979    5.0180    0.0000 C   0  0  0  0  0  0  0  0  0  0  0  0
    6.1979    3.8056    0.0000 N   0  0  0  0  0  0  0  0  0  0  0  0
    7.5979    3.8056    0.0000 C   0  0  0  0  0  0  0  0  0  0  0  0
    8.2979    5.0180    0.0000 C   0  0  0  0  0  0  0  0  0  0  0  0
    7.5979    6.2305    0.0000 C   0  0  0  0  0  0  0  0  0  0  0  0
    6.1979    6.2305    0.0000 C   0  0  0  0  0  0  0  0  0  0  0  0
  1  2  2  0  0  0  0
  2  3  1  0  0  0  0
  3  4  2  0  0  0  0
  4  5  1  0  0  0  0
  5  6  2  0  0  0  0
  6  1  1  0  0  0  0
  1  7  1  0  0  0  0
  7  8  2  0  0  0  0
  8  9  1  0  0  0  0
  9 10  2  0  0  0  0
 10  2  1  0  0  0  0
  4 11  1  0  0  0  0
 11 12  1  0  0  0  0
 12 13  1  0  0  0  0
 13 14  1  0  0  0  0
 14 15  1  0  0  0  0
 15 16  1  0  0  0  0
 16 17  1  0  0  0  0
 17 18  1  0  0  0  0
 18 19  1  0  0  0  0
 19 14  1  0  0  0  0
  7 20  1  0  0  0  0
 20 21  1  0  0  0  0
 21 22  2  0  0  0  0
 22 23  1  0  0  0  0
 23 24  1  0  0  0  0
 24 20  2  0  0  0  0
 23 25  1  0  0  0  0
 25 26  1  0  0  0  0
 26 27  1  0  0  0  0
 27 24  1  0  0  0  0
 21 28  1  0  0  0  0
 28 29  2  0  0  0  0
 29 30  1  0  0  0  0
 30 31  2  0  0  0  0
 31 32  1  0  0  0  0
 32 33  2  0  0  0  0
 33 28  1  0  0  0  0
M  END
>  <Mol_ID> (350)
2429

>  <Formula> (350)
C26H27N5O2

>  <MolWeight> (350)
441.52488

>  <Cat> (350)
S2704 

>  <Name> (350)
LY2109761

>  <Synonyms> (350)
N/A

>  <Target> (350)
TGF-beta/Smad

>  <Form> (350)
Free Base

>  <CAS> (350)
700874-71-1 

>  <URL> (350)
http://www.selleckchem.com/products/ly2109761.html

$$$$
INCB28060.cdx
csChFnd80/05071909292D

 31 35  0  0  0  0  0  0  0  0999 V2000
    1.2124    4.9000    0.0000 C   0  0  0  0  0  0  0  0  0  0  0  0
    2.4249    4.2000    0.0000 C   0  0  0  0  0  0  0  0  0  0  0  0
    3.6373    4.9000    0.0000 C   0  0  0  0  0  0  0  0  0  0  0  0
    4.8497    4.2000    0.0000 C   0  0  0  0  0  0  0  0  0  0  0  0
    4.8497    2.8000    0.0000 C   0  0  0  0  0  0  0  0  0  0  0  0
    3.6373    2.1000    0.0000 C   0  0  0  0  0  0  0  0  0  0  0  0
    2.4249    2.8000    0.0000 C   0  0  0  0  0  0  0  0  0  0  0  0
    1.2124    6.3000    0.0000 O   0  0  0  0  0  0  0  0  0  0  0  0
    0.0000    4.2000    0.0000 N   0  0  0  0  0  0  0  0  0  0  0  0
    7.2746    2.8000    0.0000 N   0  0  0  0  0  0  0  0  0  0  0  0
    8.4871    2.1000    0.0000 N   0  0  0  0  0  0  0  0  0  0  0  0
    8.4871    0.7000    0.0000 C   0  0  0  0  0  0  0  0  0  0  0  0
    7.2746    0.0000    0.0000 N   0  0  0  0  0  0  0  0  0  0  0  0
    6.0622    0.7000    0.0000 C   0  0  0  0  0  0  0  0  0  0  0  0
    6.0622    2.1000    0.0000 C   0  0  0  0  0  0  0  0  0  0  0  0
    9.8185    0.2674    0.0000 N   0  0  0  0  0  0  0  0  0  0  0  0
   10.6414    1.4000    0.0000 C   0  0  0  0  0  0  0  0  0  0  0  0
    9.8185    2.5326    0.0000 C   0  0  0  0  0  0  0  0  0  0  0  0
   10.2512    3.8641    0.0000 C   0  0  0  0  0  0  0  0  0  0  0  0
   15.7822    4.7401    0.0000 N   0  0  0  0  0  0  0  0  0  0  0  0
   16.6633    3.6521    0.0000 C   0  0  0  0  0  0  0  0  0  0  0  0
   16.1615    2.3451    0.0000 C   0  0  0  0  0  0  0  0  0  0  0  0
   14.7788    2.1261    0.0000 C   0  0  0  0  0  0  0  0  0  0  0  0
   13.8977    3.2141    0.0000 C   0  0  0  0  0  0  0  0  0  0  0  0
   12.5150    2.9951    0.0000 C   0  0  0  0  0  0  0  0  0  0  0  0
   11.6339    4.0831    0.0000 C   0  0  0  0  0  0  0  0  0  0  0  0
   12.1356    5.3901    0.0000 C   0  0  0  0  0  0  0  0  0  0  0  0
   13.5184    5.6091    0.0000 C   0  0  0  0  0  0  0  0  0  0  0  0
   14.3994    4.5211    0.0000 C   0  0  0  0  0  0  0  0  0  0  0  0
    0.0000    2.8000    0.0000 C   0  0  0  0  0  0  0  0  0  0  0  0
    3.6373    6.3000    0.0000 F   0  0  0  0  0  0  0  0  0  0  0  0
  1  2  1  0  0  0  0
  2  3  1  0  0  0  0
  3  4  2  0  0  0  0
  4  5  1  0  0  0  0
  5  6  2  0  0  0  0
  6  7  1  0  0  0  0
  2  7  2  0  0  0  0
  1  8  2  0  0  0  0
  1  9  1  0  0  0  0
 10 11  1  0  0  0  0
 11 12  1  0  0  0  0
 12 13  1  0  0  0  0
 13 14  2  0  0  0  0
 14 15  1  0  0  0  0
 10 15  2  0  0  0  0
 16 17  1  0  0  0  0
 17 18  2  0  0  0  0
 11 18  1  0  0  0  0
 12 16  2  0  0  0  0
 20 21  2  0  0  0  0
 21 22  1  0  0  0  0
 22 23  2  0  0  0  0
 23 24  1  0  0  0  0
 24 25  2  0  0  0  0
 25 26  1  0  0  0  0
 26 27  2  0  0  0  0
 27 28  1  0  0  0  0
 28 29  2  0  0  0  0
 20 29  1  0  0  0  0
 24 29  1  0  0  0  0
 19 26  1  0  0  0  0
 18 19  1  0  0  0  0
  5 15  1  0  0  0  0
  9 30  1  0  0  0  0
  3 31  1  0  0  0  0
M  END
>  <Mol_ID> (351)
2430

>  <Formula> (351)
C23H17FN6O

>  <MolWeight> (351)
412.4190832

>  <Cat> (351)
S2788

>  <Name> (351)
Capmatinib (INCB28060)

>  <Synonyms> (351)
N/A

>  <Target> (351)
c-Met 

>  <Form> (351)
Free Base

>  <CAS> (351)
1029712-80-8

>  <URL> (351)
http://www.selleckchem.com/products/incb28060.html

$$$$
LY364947.cdx
csChFnd80/05071909292D

 21 24  0  0  0  0  0  0  0  0999 V2000
    2.2347    0.6624    0.0000 N   0  0  0  0  0  0  0  0  0  0  0  0
    3.6041    0.3714    0.0000 C   0  0  0  0  0  0  0  0  0  0  0  0
    4.5408    1.4118    0.0000 C   0  0  0  0  0  0  0  0  0  0  0  0
    4.1082    2.7432    0.0000 C   0  0  0  0  0  0  0  0  0  0  0  0
    2.7388    3.0343    0.0000 C   0  0  0  0  0  0  0  0  0  0  0  0
    2.3062    4.3658    0.0000 C   0  0  0  0  0  0  0  0  0  0  0  0
    0.9368    4.6569    0.0000 C   0  0  0  0  0  0  0  0  0  0  0  0
    0.0000    3.6165    0.0000 C   0  0  0  0  0  0  0  0  0  0  0  0
    0.4326    2.2850    0.0000 C   0  0  0  0  0  0  0  0  0  0  0  0
    1.8020    1.9939    0.0000 C   0  0  0  0  0  0  0  0  0  0  0  0
    5.9664    5.8531    0.0000 N   0  0  0  0  0  0  0  0  0  0  0  0
    7.0068    4.9163    0.0000 N   0  0  0  0  0  0  0  0  0  0  0  0
    6.4373    3.6373    0.0000 C   0  0  0  0  0  0  0  0  0  0  0  0
    5.0450    3.7836    0.0000 C   0  0  0  0  0  0  0  0  0  0  0  0
    4.7539    5.1531    0.0000 C   0  0  0  0  0  0  0  0  0  0  0  0
    7.1373    2.4249    0.0000 C   0  0  0  0  0  0  0  0  0  0  0  0
    8.5373    2.4249    0.0000 C   0  0  0  0  0  0  0  0  0  0  0  0
    9.2373    1.2124    0.0000 C   0  0  0  0  0  0  0  0  0  0  0  0
    8.5373    0.0000    0.0000 C   0  0  0  0  0  0  0  0  0  0  0  0
    7.1373    0.0000    0.0000 C   0  0  0  0  0  0  0  0  0  0  0  0
    6.4373    1.2124    0.0000 N   0  0  0  0  0  0  0  0  0  0  0  0
  1  2  1  0  0  0  0
  2  3  2  0  0  0  0
  3  4  1  0  0  0  0
  4  5  2  0  0  0  0
  5  6  1  0  0  0  0
  6  7  2  0  0  0  0
  7  8  1  0  0  0  0
  8  9  2  0  0  0  0
  9 10  1  0  0  0  0
  1 10  2  0  0  0  0
  5 10  1  0  0  0  0
 11 12  1  0  0  0  0
 12 13  2  0  0  0  0
 13 14  1  0  0  0  0
 14 15  2  0  0  0  0
 11 15  1  0  0  0  0
 16 17  1  0  0  0  0
 17 18  2  0  0  0  0
 18 19  1  0  0  0  0
 19 20  2  0  0  0  0
 20 21  1  0  0  0  0
 16 21  2  0  0  0  0
 13 16  1  0  0  0  0
  4 14  1  0  0  0  0
M  END
>  <Mol_ID> (352)
2433

>  <Formula> (352)
C17H12N4

>  <MolWeight> (352)
272.30398

>  <Cat> (352)
S2805 

>  <Name> (352)
LY364947

>  <Synonyms> (352)
N/A

>  <Target> (352)
TGF-beta/Smad

>  <Form> (352)
Free Base

>  <CAS> (352)
396129-53-6

>  <URL> (352)
http://www.selleckchem.com/products/ly364947.html

$$$$
Torin 1.cdx
csChFnd80/05071909292D

 45 51  0  0  0  0  0  0  0  0999 V2000
    9.6995    4.2000    0.0000 N   0  0  0  0  0  0  0  0  0  0  0  0
   10.9119    4.9000    0.0000 C   0  0  0  0  0  0  0  0  0  0  0  0
   12.1244    4.2000    0.0000 C   0  0  0  0  0  0  0  0  0  0  0  0
   12.1244    2.8000    0.0000 C   0  0  0  0  0  0  0  0  0  0  0  0
   10.9119    2.1000    0.0000 C   0  0  0  0  0  0  0  0  0  0  0  0
   10.9119    0.7000    0.0000 C   0  0  0  0  0  0  0  0  0  0  0  0
    9.6995    0.0000    0.0000 N   0  0  0  0  0  0  0  0  0  0  0  0
    8.4871    0.7000    0.0000 C   0  0  0  0  0  0  0  0  0  0  0  0
    8.4871    2.1000    0.0000 C   0  0  0  0  0  0  0  0  0  0  0  0
    9.6995    2.8000    0.0000 C   0  0  0  0  0  0  0  0  0  0  0  0
    7.2746    2.8000    0.0000 C   0  0  0  0  0  0  0  0  0  0  0  0
    6.0622    2.1000    0.0000 C   0  0  0  0  0  0  0  0  0  0  0  0
    6.0622    0.7000    0.0000 C   0  0  0  0  0  0  0  0  0  0  0  0
    7.2746    0.0000    0.0000 C   0  0  0  0  0  0  0  0  0  0  0  0
   10.9119    6.3000    0.0000 O   0  0  0  0  0  0  0  0  0  0  0  0
    3.6373    4.9000    0.0000 N   0  0  0  0  0  0  0  0  0  0  0  0
    4.8497    4.2000    0.0000 C   0  0  0  0  0  0  0  0  0  0  0  0
    4.8497    2.8000    0.0000 C   0  0  0  0  0  0  0  0  0  0  0  0
    3.6373    2.1000    0.0000 C   0  0  0  0  0  0  0  0  0  0  0  0
    2.4249    2.8000    0.0000 C   0  0  0  0  0  0  0  0  0  0  0  0
    1.2124    2.1000    0.0000 C   0  0  0  0  0  0  0  0  0  0  0  0
    0.0000    2.8000    0.0000 C   0  0  0  0  0  0  0  0  0  0  0  0
    0.0000    4.2000    0.0000 C   0  0  0  0  0  0  0  0  0  0  0  0
    1.2124    4.9000    0.0000 C   0  0  0  0  0  0  0  0  0  0  0  0
    2.4249    4.2000    0.0000 C   0  0  0  0  0  0  0  0  0  0  0  0
    8.4871    4.9000    0.0000 C   0  0  0  0  0  0  0  0  0  0  0  0
    8.4871    6.3000    0.0000 C   0  0  0  0  0  0  0  0  0  0  0  0
    7.2746    7.0000    0.0000 C   0  0  0  0  0  0  0  0  0  0  0  0
    6.0622    6.3000    0.0000 C   0  0  0  0  0  0  0  0  0  0  0  0
    6.0622    4.9000    0.0000 C   0  0  0  0  0  0  0  0  0  0  0  0
    7.2746    4.2000    0.0000 C   0  0  0  0  0  0  0  0  0  0  0  0
    7.2746    8.4000    0.0000 C   0  0  0  0  0  0  0  0  0  0  0  0
    7.2746    9.8000    0.0000 F   0  0  0  0  0  0  0  0  0  0  0  0
    8.6746    8.4000    0.0000 F   0  0  0  0  0  0  0  0  0  0  0  0
    5.8746    8.4000    0.0000 F   0  0  0  0  0  0  0  0  0  0  0  0
    4.8497    7.0000    0.0000 N   0  0  0  0  0  0  0  0  0  0  0  0
    3.6373    6.3000    0.0000 C   0  0  0  0  0  0  0  0  0  0  0  0
    2.4249    7.0000    0.0000 C   0  0  0  0  0  0  0  0  0  0  0  0
    2.4249    8.4000    0.0000 N   0  0  0  0  0  0  0  0  0  0  0  0
    3.6373    9.1000    0.0000 C   0  0  0  0  0  0  0  0  0  0  0  0
    4.8497    8.4000    0.0000 C   0  0  0  0  0  0  0  0  0  0  0  0
    1.2124    9.1000    0.0000 C   0  0  0  0  0  0  0  0  0  0  0  0
    0.0000    8.4000    0.0000 C   0  0  0  0  0  0  0  0  0  0  0  0
    0.0000    7.0000    0.0000 C   0  0  0  0  0  0  0  0  0  0  0  0
    1.2124   10.5000    0.0000 O   0  0  0  0  0  0  0  0  0  0  0  0
  1  2  1  0  0  0  0
  2  3  1  0  0  0  0
  3  4  2  0  0  0  0
  4  5  1  0  0  0  0
  5  6  1  0  0  0  0
  6  7  2  0  0  0  0
  7  8  1  0  0  0  0
  8  9  1  0  0  0  0
  9 10  1  0  0  0  0
  1 10  1  0  0  0  0
  5 10  2  0  0  0  0
 11 12  1  0  0  0  0
 12 13  2  0  0  0  0
 13 14  1  0  0  0  0
  8 14  2  0  0  0  0
  9 11  2  0  0  0  0
  2 15  2  0  0  0  0
 16 17  2  0  0  0  0
 17 18  1  0  0  0  0
 18 19  2  0  0  0  0
 19 20  1  0  0  0  0
 20 21  2  0  0  0  0
 21 22  1  0  0  0  0
 22 23  2  0  0  0  0
 23 24  1  0  0  0  0
 24 25  2  0  0  0  0
 16 25  1  0  0  0  0
 20 25  1  0  0  0  0
 12 18  1  0  0  0  0
 26 27  1  0  0  0  0
 27 28  2  0  0  0  0
 28 29  1  0  0  0  0
 29 30  2  0  0  0  0
 30 31  1  0  0  0  0
 26 31  2  0  0  0  0
 32 33  1  0  0  0  0
 32 34  1  0  0  0  0
 32 35  1  0  0  0  0
 28 32  1  0  0  0  0
 36 37  1  0  0  0  0
 37 38  1  0  0  0  0
 38 39  1  0  0  0  0
 39 40  1  0  0  0  0
 40 41  1  0  0  0  0
 36 41  1  0  0  0  0
 42 43  1  0  0  0  0
 43 44  1  0  0  0  0
 42 45  2  0  0  0  0
 39 42  1  0  0  0  0
 29 36  1  0  0  0  0
  1 26  1  0  0  0  0
M  END
>  <Mol_ID> (353)
2435

>  <Formula> (353)
C35H28F3N5O2

>  <MolWeight> (353)
607.6243296

>  <Cat> (353)
S2827

>  <Name> (353)
Torin 1

>  <Synonyms> (353)
N/A 

>  <Target> (353)
mTOR

>  <Form> (353)
Free Base

>  <CAS> (353)
1222998-36-8

>  <URL> (353)
http://www.selleckchem.com/products/torin-1.html

$$$$
TG 100713.cdx
csChFnd80/05071909292D

 19 21  0  0  0  0  0  0  0  0999 V2000
    9.6995    2.8000    0.0000 C   0  0  0  0  0  0  0  0  0  0  0  0
    8.4870    2.1000    0.0000 C   0  0  0  0  0  0  0  0  0  0  0  0
    7.2746    2.8000    0.0000 C   0  0  0  0  0  0  0  0  0  0  0  0
    7.2746    4.2000    0.0000 C   0  0  0  0  0  0  0  0  0  0  0  0
    8.4870    4.9000    0.0000 C   0  0  0  0  0  0  0  0  0  0  0  0
    9.6995    4.2000    0.0000 C   0  0  0  0  0  0  0  0  0  0  0  0
    2.4249    0.0000    0.0000 N   0  0  0  0  0  0  0  0  0  0  0  0
    1.2124    0.7000    0.0000 C   0  0  0  0  0  0  0  0  0  0  0  0
    1.2124    2.1000    0.0000 N   0  0  0  0  0  0  0  0  0  0  0  0
    2.4249    2.8000    0.0000 C   0  0  0  0  0  0  0  0  0  0  0  0
    3.6373    2.1000    0.0000 C   0  0  0  0  0  0  0  0  0  0  0  0
    4.8497    2.8000    0.0000 N   0  0  0  0  0  0  0  0  0  0  0  0
    6.0622    2.1000    0.0000 C   0  0  0  0  0  0  0  0  0  0  0  0
    6.0622    0.7000    0.0000 C   0  0  0  0  0  0  0  0  0  0  0  0
    4.8497    0.0000    0.0000 N   0  0  0  0  0  0  0  0  0  0  0  0
    3.6373    0.7000    0.0000 C   0  0  0  0  0  0  0  0  0  0  0  0
    2.4249    4.2000    0.0000 N   0  0  0  0  0  0  0  0  0  0  0  0
    0.0000    0.0000    0.0000 N   0  0  0  0  0  0  0  0  0  0  0  0
   10.9119    2.1000    0.0000 O   0  0  0  0  0  0  0  0  0  0  0  0
  1  2  1  0  0  0  0
  2  3  2  0  0  0  0
  3  4  1  0  0  0  0
  4  5  2  0  0  0  0
  5  6  1  0  0  0  0
  1  6  2  0  0  0  0
  7  8  1  0  0  0  0
  8  9  2  0  0  0  0
  9 10  1  0  0  0  0
 10 11  2  0  0  0  0
 11 12  1  0  0  0  0
 12 13  2  0  0  0  0
 13 14  1  0  0  0  0
 14 15  2  0  0  0  0
 15 16  1  0  0  0  0
  7 16  2  0  0  0  0
 11 16  1  0  0  0  0
 10 17  1  0  0  0  0
  8 18  1  0  0  0  0
  3 13  1  0  0  0  0
  1 19  1  0  0  0  0
M  END
>  <Mol_ID> (354)
2440

>  <Formula> (354)
C12H10N6O

>  <MolWeight> (354)
254.2474

>  <Cat> (354)
S2870

>  <Name> (354)
TG 100713

>  <Synonyms> (354)
N/A

>  <Target> (354)
PI3K

>  <Form> (354)
Free Base

>  <CAS> (354)
925705-73-3

>  <URL> (354)
http://www.selleckchem.com/products/tg-100713.html

$$$$
IPA-3.cdx
csChFnd80/05071909292D

 24 27  0  0  0  0  0  0  0  0999 V2000
    6.0623    2.1001    0.0000 S   0  0  0  0  0  0  0  0  0  0  0  0
    4.8499    2.8001    0.0000 S   0  0  0  0  0  0  0  0  0  0  0  0
    7.2748    2.8001    0.0000 C   0  0  0  0  0  0  0  0  0  0  0  0
    7.2748    4.2003    0.0000 C   0  0  0  0  0  0  0  0  0  0  0  0
    8.4873    4.9001    0.0000 C   0  0  0  0  0  0  0  0  0  0  0  0
    9.6997    4.2003    0.0000 C   0  0  0  0  0  0  0  0  0  0  0  0
    9.6997    2.8001    0.0000 C   0  0  0  0  0  0  0  0  0  0  0  0
   10.9122    2.1002    0.0000 C   0  0  0  0  0  0  0  0  0  0  0  0
   10.9122    0.7000    0.0000 C   0  0  0  0  0  0  0  0  0  0  0  0
    9.6997    0.0002    0.0000 C   0  0  0  0  0  0  0  0  0  0  0  0
    8.4873    0.7000    0.0000 C   0  0  0  0  0  0  0  0  0  0  0  0
    8.4873    2.1002    0.0000 C   0  0  0  0  0  0  0  0  0  0  0  0
    6.0623    4.9003    0.0000 O   0  0  0  0  0  0  0  0  0  0  0  0
    3.6374    2.1002    0.0000 C   0  0  0  0  0  0  0  0  0  0  0  0
    3.6374    0.7000    0.0000 C   0  0  0  0  0  0  0  0  0  0  0  0
    2.4249    0.0002    0.0000 C   0  0  0  0  0  0  0  0  0  0  0  0
    1.2125    0.7000    0.0000 C   0  0  0  0  0  0  0  0  0  0  0  0
    1.2125    2.1002    0.0000 C   0  0  0  0  0  0  0  0  0  0  0  0
    0.0000    2.8001    0.0000 C   0  0  0  0  0  0  0  0  0  0  0  0
    0.0000    4.2003    0.0000 C   0  0  0  0  0  0  0  0  0  0  0  0
    1.2125    4.9001    0.0000 C   0  0  0  0  0  0  0  0  0  0  0  0
    2.4249    4.2003    0.0000 C   0  0  0  0  0  0  0  0  0  0  0  0
    2.4249    2.8001    0.0000 C   0  0  0  0  0  0  0  0  0  0  0  0
    4.8499    0.0000    0.0000 O   0  0  0  0  0  0  0  0  0  0  0  0
  1  2  1  0  0  0  0
  3  4  1  0  0  0  0
  4  5  2  0  0  0  0
  5  6  1  0  0  0  0
  6  7  2  0  0  0  0
  7  8  1  0  0  0  0
  8  9  2  0  0  0  0
  9 10  1  0  0  0  0
 10 11  2  0  0  0  0
 11 12  1  0  0  0  0
  3 12  2  0  0  0  0
  7 12  1  0  0  0  0
  4 13  1  0  0  0  0
  1  3  1  0  0  0  0
 14 15  1  0  0  0  0
 15 16  2  0  0  0  0
 16 17  1  0  0  0  0
 17 18  2  0  0  0  0
 18 19  1  0  0  0  0
 19 20  2  0  0  0  0
 20 21  1  0  0  0  0
 21 22  2  0  0  0  0
 22 23  1  0  0  0  0
 14 23  2  0  0  0  0
 18 23  1  0  0  0  0
 15 24  1  0  0  0  0
  2 14  1  0  0  0  0
M  END
>  <Mol_ID> (355)
2444

>  <Formula> (355)
C20H14O2S2

>  <MolWeight> (355)
350.45396

>  <Cat> (355)
S7093

>  <Name> (355)
IPA-3

>  <Synonyms> (355)
N/A

>  <Target> (355)
PAK

>  <Form> (355)
Free Base

>  <CAS> (355)
42521-82-4

>  <URL> (355)
https://www.selleckchem.com/products/ipa-3.html

$$$$
PP2.cdx
csChFnd80/05071909292D

 21 23  0  0  0  0  0  0  0  0999 V2000
    0.0000    4.4863    0.0000 N   0  0  0  0  0  0  0  0  0  0  0  0
    0.0000    3.0863    0.0000 C   0  0  0  0  0  0  0  0  0  0  0  0
    1.2124    2.3863    0.0000 N   0  0  0  0  0  0  0  0  0  0  0  0
    2.4249    3.0863    0.0000 C   0  0  0  0  0  0  0  0  0  0  0  0
    2.4249    4.4863    0.0000 C   0  0  0  0  0  0  0  0  0  0  0  0
    1.2124    5.1863    0.0000 C   0  0  0  0  0  0  0  0  0  0  0  0
    3.7564    2.6537    0.0000 N   0  0  0  0  0  0  0  0  0  0  0  0
    4.5793    3.7863    0.0000 N   0  0  0  0  0  0  0  0  0  0  0  0
    3.7564    4.9190    0.0000 C   0  0  0  0  0  0  0  0  0  0  0  0
    1.2124    6.5815    0.0000 N   0  0  0  0  0  0  0  0  0  0  0  0
    4.1875    1.3269    0.0000 C   0  0  0  0  0  0  0  0  0  0  0  0
    4.6186    0.0000    0.0000 C   0  0  0  0  0  0  0  0  0  0  0  0
    2.8606    0.8957    0.0000 C   0  0  0  0  0  0  0  0  0  0  0  0
    5.5143    1.7580    0.0000 C   0  0  0  0  0  0  0  0  0  0  0  0
    4.1875    6.2458    0.0000 C   0  0  0  0  0  0  0  0  0  0  0  0
    5.5569    6.5369    0.0000 C   0  0  0  0  0  0  0  0  0  0  0  0
    5.9895    7.8684    0.0000 C   0  0  0  0  0  0  0  0  0  0  0  0
    5.0527    8.9088    0.0000 C   0  0  0  0  0  0  0  0  0  0  0  0
    3.6833    8.6177    0.0000 C   0  0  0  0  0  0  0  0  0  0  0  0
    3.2507    7.2862    0.0000 C   0  0  0  0  0  0  0  0  0  0  0  0
    5.4838   10.2356    0.0000 Cl  0  0  0  0  0  0  0  0  0  0  0  0
  1  2  2  0  0  0  0
  2  3  1  0  0  0  0
  3  4  2  0  0  0  0
  4  5  1  0  0  0  0
  5  6  2  0  0  0  0
  6  1  1  0  0  0  0
  4  7  1  0  0  0  0
  7  8  1  0  0  0  0
  8  9  2  0  0  0  0
  9  5  1  0  0  0  0
  6 10  1  0  0  0  0
  7 11  1  0  0  0  0
 11 12  1  0  0  0  0
 11 13  1  0  0  0  0
 11 14  1  0  0  0  0
  9 15  1  0  0  0  0
 15 16  2  0  0  0  0
 16 17  1  0  0  0  0
 17 18  2  0  0  0  0
 18 19  1  0  0  0  0
 19 20  2  0  0  0  0
 20 15  1  0  0  0  0
 18 21  1  0  0  0  0
M  END
>  <Mol_ID> (356)
2446

>  <Formula> (356)
C15H16ClN5

>  <MolWeight> (356)
301.77404

>  <Cat> (356)
S7008

>  <Name> (356)
PP2

>  <Synonyms> (356)
AG 1879

>  <Target> (356)
Src

>  <Form> (356)
Free Base

>  <CAS> (356)
172889-27-9

>  <URL> (356)
https://www.selleckchem.com/products/pp2.html

$$$$
PD168393.cdx
csChFnd80/05071909292D

 23 25  0  0  0  0  0  0  0  0999 V2000
    4.8329    6.2927    0.0000 C   0  0  0  0  0  0  0  0  0  0  0  0
    4.8329    4.8927    0.0000 C   0  0  0  0  0  0  0  0  0  0  0  0
    6.0453    4.1927    0.0000 C   0  0  0  0  0  0  0  0  0  0  0  0
    7.2578    4.8927    0.0000 C   0  0  0  0  0  0  0  0  0  0  0  0
    7.2578    6.2927    0.0000 C   0  0  0  0  0  0  0  0  0  0  0  0
    6.0453    6.9927    0.0000 C   0  0  0  0  0  0  0  0  0  0  0  0
    8.4702    4.1927    0.0000 C   0  0  0  0  0  0  0  0  0  0  0  0
    9.6827    4.8927    0.0000 N   0  0  0  0  0  0  0  0  0  0  0  0
    9.6827    6.2927    0.0000 C   0  0  0  0  0  0  0  0  0  0  0  0
    8.4702    6.9927    0.0000 N   0  0  0  0  0  0  0  0  0  0  0  0
    3.6247    4.1951    0.0000 N   0  0  0  0  0  0  0  0  0  0  0  0
    2.4165    4.8927    0.0000 C   0  0  0  0  0  0  0  0  0  0  0  0
    1.2082    4.1951    0.0000 C   0  0  0  0  0  0  0  0  0  0  0  0
    2.4165    6.2878    0.0000 O   0  0  0  0  0  0  0  0  0  0  0  0
    0.0000    4.8927    0.0000 C   0  0  0  0  0  0  0  0  0  0  0  0
    8.4702    2.7976    0.0000 N   0  0  0  0  0  0  0  0  0  0  0  0
    9.6784    2.1000    0.0000 C   0  0  0  0  0  0  0  0  0  0  0  0
    9.6784    0.7000    0.0000 C   0  0  0  0  0  0  0  0  0  0  0  0
   10.8909    0.0000    0.0000 C   0  0  0  0  0  0  0  0  0  0  0  0
   12.1033    0.7000    0.0000 C   0  0  0  0  0  0  0  0  0  0  0  0
   12.1033    2.1000    0.0000 C   0  0  0  0  0  0  0  0  0  0  0  0
   10.8909    2.8000    0.0000 C   0  0  0  0  0  0  0  0  0  0  0  0
   13.3115    2.7976    0.0000 Br  0  0  0  0  0  0  0  0  0  0  0  0
  1  2  2  0  0  0  0
  2  3  1  0  0  0  0
  3  4  2  0  0  0  0
  4  5  1  0  0  0  0
  5  6  2  0  0  0  0
  6  1  1  0  0  0  0
  4  7  1  0  0  0  0
  7  8  2  0  0  0  0
  8  9  1  0  0  0  0
  9 10  2  0  0  0  0
 10  5  1  0  0  0  0
  2 11  1  0  0  0  0
 11 12  1  0  0  0  0
 12 13  1  0  0  0  0
 12 14  2  0  0  0  0
 13 15  2  0  0  0  0
  7 16  1  0  0  0  0
 16 17  1  0  0  0  0
 17 18  2  0  0  0  0
 18 19  1  0  0  0  0
 19 20  2  0  0  0  0
 20 21  1  0  0  0  0
 21 22  2  0  0  0  0
 22 17  1  0  0  0  0
 21 23  1  0  0  0  0
M  END
>  <Mol_ID> (357)
2447

>  <Formula> (357)
C17H13BrN4O

>  <MolWeight> (357)
369.21532

>  <Cat> (357)
S7039

>  <Name> (357)
PD168393

>  <Synonyms> (357)
N/A

>  <Target> (357)
EGFR

>  <Form> (357)
Free Base

>  <CAS> (357)
194423-15-9

>  <URL> (357)
https://www.selleckchem.com/products/pd168393.html

$$$$
P505-15.cdx
csChFnd80/05071909292D

 30 32  0  0  0  0  0  0  0  0999 V2000
    4.8497    8.4471    0.0000 N   0  0  0  0  0  0  0  0  0  0  0  0
    4.8497    7.0471    0.0000 C   0  0  0  0  0  0  0  0  0  0  0  0
    6.0622    6.3471    0.0000 N   0  0  0  0  0  0  0  0  0  0  0  0
    7.2746    7.0471    0.0000 C   0  0  0  0  0  0  0  0  0  0  0  0
    7.2746    8.4471    0.0000 C   0  0  0  0  0  0  0  0  0  0  0  0
    6.0622    9.1471    0.0000 C   0  0  0  0  0  0  0  0  0  0  0  0
    8.4828    9.1447    0.0000 C   0  0  0  0  0  0  0  0  0  0  0  0
    9.6911    8.4471    0.0000 N   0  0  0  0  0  0  0  0  0  0  0  0
    8.4828   10.5398    0.0000 O   0  0  0  0  0  0  0  0  0  0  0  0
    8.4828    6.3495    0.0000 N   0  0  0  0  0  0  0  0  0  0  0  0
    9.6953    5.6495    0.0000 C   0  0  0  0  0  0  0  0  0  0  0  0
    9.6953    4.2495    0.0000 C   0  0  0  0  0  0  0  0  0  0  0  0
   10.9077    3.5495    0.0000 C   0  0  0  0  0  0  0  0  0  0  0  0
   12.1201    4.2495    0.0000 C   0  0  0  0  0  0  0  0  0  0  0  0
   12.1201    5.6495    0.0000 C   0  0  0  0  0  0  0  0  0  0  0  0
   10.9077    6.3495    0.0000 C   0  0  0  0  0  0  0  0  0  0  0  0
    3.6373    6.3471    0.0000 N   0  0  0  0  0  0  0  0  0  0  0  0
   10.9077    2.1544    0.0000 N   0  0  0  0  0  0  0  0  0  0  0  0
    9.7751    1.3315    0.0000 N   0  0  0  0  0  0  0  0  0  0  0  0
   10.2077    0.0000    0.0000 C   0  0  0  0  0  0  0  0  0  0  0  0
   11.6077    0.0000    0.0000 C   0  0  0  0  0  0  0  0  0  0  0  0
   12.0403    1.3315    0.0000 N   0  0  0  0  0  0  0  0  0  0  0  0
    2.4249    5.6471    0.0000 C   0  0  2  0  0  0  0  0  0  0  0  0
    1.2124    6.3471    0.0000 C   0  0  0  0  0  0  0  0  0  0  0  0
    0.0000    5.6471    0.0000 C   0  0  0  0  0  0  0  0  0  0  0  0
    0.0000    4.2471    0.0000 C   0  0  0  0  0  0  0  0  0  0  0  0
    1.2124    3.5471    0.0000 C   0  0  0  0  0  0  0  0  0  0  0  0
    2.4249    4.2471    0.0000 C   0  0  2  0  0  0  0  0  0  0  0  0
    3.6331    3.5495    0.0000 N   0  0  0  0  0  0  0  0  0  0  0  0
    5.0262    1.7825    0.0000 Cl  0  0  0  0  0  0  0  0  0  0  0  0
  1  2  2  0  0  0  0
  2  3  1  0  0  0  0
  3  4  2  0  0  0  0
  4  5  1  0  0  0  0
  5  6  2  0  0  0  0
  6  1  1  0  0  0  0
  5  7  1  0  0  0  0
  7  8  1  0  0  0  0
  7  9  2  0  0  0  0
  4 10  1  0  0  0  0
 10 11  1  0  0  0  0
 11 12  2  0  0  0  0
 12 13  1  0  0  0  0
 13 14  2  0  0  0  0
 14 15  1  0  0  0  0
 15 16  2  0  0  0  0
 16 11  1  0  0  0  0
  2 17  1  0  0  0  0
 13 18  1  0  0  0  0
 18 19  1  0  0  0  0
 19 20  2  0  0  0  0
 20 21  1  0  0  0  0
 21 22  2  0  0  0  0
 22 18  1  0  0  0  0
 23 17  1  1  0  0  0
 23 24  1  0  0  0  0
 24 25  1  0  0  0  0
 25 26  1  0  0  0  0
 26 27  1  0  0  0  0
 27 28  1  0  0  0  0
 28 23  1  0  0  0  0
 28 29  1  1  0  0  0
M  END
>  <Mol_ID> (358)
2449

>  <Formula> (358)
C19H24ClN9O

>  <MolWeight> (358)
429.90656

>  <Cat> (358)
S8032

>  <Name> (358)
PRT062607 (P505-15, PRT2607, BIIB057) HCl

>  <Synonyms> (358)
N/A

>  <Target> (358)
Syk

>  <Form> (358)
Hydrochloride

>  <CAS> (358)
1370261-97-4,1370261-96-3(free base)

>  <URL> (358)
https://www.selleckchem.com/products/prt062607-p505-15-hcl.html

$$$$
p276-00.cdx
csChFnd80/05071909292D

 29 31  0  0  0  0  0  0  0  0999 V2000
    0.0000    5.5927    0.0000 C   0  0  0  0  0  0  0  0  0  0  0  0
    0.0000    4.1927    0.0000 C   0  0  0  0  0  0  0  0  0  0  0  0
    1.2124    3.4927    0.0000 C   0  0  0  0  0  0  0  0  0  0  0  0
    2.4249    4.1927    0.0000 C   0  0  0  0  0  0  0  0  0  0  0  0
    2.4249    5.5927    0.0000 C   0  0  0  0  0  0  0  0  0  0  0  0
    1.2124    6.2927    0.0000 C   0  0  0  0  0  0  0  0  0  0  0  0
    1.2124    2.0976    0.0000 Cl  0  0  0  0  0  0  0  0  0  0  0  0
    3.6331    3.4951    0.0000 C   0  0  0  0  0  0  0  0  0  0  0  0
    3.6331    2.0951    0.0000 C   0  0  0  0  0  0  0  0  0  0  0  0
    4.8455    1.3951    0.0000 C   0  0  0  0  0  0  0  0  0  0  0  0
    6.0580    2.0951    0.0000 C   0  0  0  0  0  0  0  0  0  0  0  0
    6.0580    3.4951    0.0000 C   0  0  0  0  0  0  0  0  0  0  0  0
    4.8455    4.1951    0.0000 O   0  0  0  0  0  0  0  0  0  0  0  0
    7.2704    1.3951    0.0000 C   0  0  0  0  0  0  0  0  0  0  0  0
    8.4828    2.0951    0.0000 C   0  0  0  0  0  0  0  0  0  0  0  0
    8.4828    3.4951    0.0000 C   0  0  0  0  0  0  0  0  0  0  0  0
    7.2704    4.1951    0.0000 C   0  0  0  0  0  0  0  0  0  0  0  0
    9.6911    4.1927    0.0000 O   0  0  0  0  0  0  0  0  0  0  0  0
    7.2704    0.0000    0.0000 O   0  0  0  0  0  0  0  0  0  0  0  0
    4.8455    0.0000    0.0000 O   0  0  0  0  0  0  0  0  0  0  0  0
    7.2704    5.5903    0.0000 C   0  0  1  0  0  0  0  0  0  0  0  0
    8.4030    6.4132    0.0000 C   0  0  1  0  0  0  0  0  0  0  0  0
    7.9704    7.7447    0.0000 N   0  0  0  0  0  0  0  0  0  0  0  0
    6.5704    7.7447    0.0000 C   0  0  0  0  0  0  0  0  0  0  0  0
    6.1378    6.4132    0.0000 C   0  0  0  0  0  0  0  0  0  0  0  0
    9.7299    5.9821    0.0000 C   0  0  0  0  0  0  0  0  0  0  0  0
   10.7667    6.9156    0.0000 O   0  0  0  0  0  0  0  0  0  0  0  0
    8.7904    8.8734    0.0000 C   0  0  0  0  0  0  0  0  0  0  0  0
   13.0098    1.5531    0.0000 Cl  0  0  0  0  0  0  0  0  0  0  0  0
  1  2  2  0  0  0  0
  2  3  1  0  0  0  0
  3  4  2  0  0  0  0
  4  5  1  0  0  0  0
  5  6  2  0  0  0  0
  6  1  1  0  0  0  0
  3  7  1  0  0  0  0
  4  8  1  0  0  0  0
  8  9  2  0  0  0  0
  9 10  1  0  0  0  0
 10 11  1  0  0  0  0
 11 12  2  0  0  0  0
 12 13  1  0  0  0  0
 13  8  1  0  0  0  0
 11 14  1  0  0  0  0
 14 15  2  0  0  0  0
 15 16  1  0  0  0  0
 16 17  2  0  0  0  0
 17 12  1  0  0  0  0
 16 18  1  0  0  0  0
 14 19  1  0  0  0  0
 10 20  2  0  0  0  0
 21 22  1  0  0  0  0
 22 23  1  0  0  0  0
 23 24  1  0  0  0  0
 24 25  1  0  0  0  0
 25 21  1  0  0  0  0
 22 26  1  1  0  0  0
 26 27  1  0  0  0  0
 23 28  1  0  0  0  0
 21 17  1  6  0  0  0
M  END
>  <Mol_ID> (359)
2455

>  <Formula> (359)
C21H21Cl2NO5

>  <MolWeight> (359)
438.30114

>  <Cat> (359)
S8058

>  <Name> (359)
P276-00

>  <Synonyms> (359)
N/A

>  <Target> (359)
CDK

>  <Form> (359)
HCl

>  <CAS> (359)
920113-03-7

>  <URL> (359)
https://www.selleckchem.com/products/p276-00.html

$$$$
PP1.cdx
csChFnd80/05071909292D

 21 23  0  0  0  0  0  0  0  0999 V2000
    0.0000    4.4863    0.0000 N   0  0  0  0  0  0  0  0  0  0  0  0
    0.0000    3.0863    0.0000 C   0  0  0  0  0  0  0  0  0  0  0  0
    1.2124    2.3863    0.0000 N   0  0  0  0  0  0  0  0  0  0  0  0
    2.4249    3.0863    0.0000 C   0  0  0  0  0  0  0  0  0  0  0  0
    2.4249    4.4863    0.0000 C   0  0  0  0  0  0  0  0  0  0  0  0
    1.2124    5.1863    0.0000 C   0  0  0  0  0  0  0  0  0  0  0  0
    3.7564    2.6537    0.0000 N   0  0  0  0  0  0  0  0  0  0  0  0
    4.5793    3.7863    0.0000 N   0  0  0  0  0  0  0  0  0  0  0  0
    3.7564    4.9190    0.0000 C   0  0  0  0  0  0  0  0  0  0  0  0
    1.2124    6.5815    0.0000 N   0  0  0  0  0  0  0  0  0  0  0  0
    4.1875    1.3269    0.0000 C   0  0  0  0  0  0  0  0  0  0  0  0
    4.6186    0.0000    0.0000 C   0  0  0  0  0  0  0  0  0  0  0  0
    2.8606    0.8957    0.0000 C   0  0  0  0  0  0  0  0  0  0  0  0
    5.5143    1.7580    0.0000 C   0  0  0  0  0  0  0  0  0  0  0  0
    4.1875    6.2458    0.0000 C   0  0  0  0  0  0  0  0  0  0  0  0
    5.5569    6.5369    0.0000 C   0  0  0  0  0  0  0  0  0  0  0  0
    5.9895    7.8684    0.0000 C   0  0  0  0  0  0  0  0  0  0  0  0
    5.0527    8.9088    0.0000 C   0  0  0  0  0  0  0  0  0  0  0  0
    3.6833    8.6177    0.0000 C   0  0  0  0  0  0  0  0  0  0  0  0
    3.2507    7.2862    0.0000 C   0  0  0  0  0  0  0  0  0  0  0  0
    5.4838   10.2356    0.0000 C   0  0  0  0  0  0  0  0  0  0  0  0
  1  2  2  0  0  0  0
  2  3  1  0  0  0  0
  3  4  2  0  0  0  0
  4  5  1  0  0  0  0
  5  6  2  0  0  0  0
  6  1  1  0  0  0  0
  4  7  1  0  0  0  0
  7  8  1  0  0  0  0
  8  9  2  0  0  0  0
  9  5  1  0  0  0  0
  6 10  1  0  0  0  0
  7 11  1  0  0  0  0
 11 12  1  0  0  0  0
 11 13  1  0  0  0  0
 11 14  1  0  0  0  0
  9 15  1  0  0  0  0
 15 16  2  0  0  0  0
 16 17  1  0  0  0  0
 17 18  2  0  0  0  0
 18 19  1  0  0  0  0
 19 20  2  0  0  0  0
 20 15  1  0  0  0  0
 18 21  1  0  0  0  0
M  END
>  <Mol_ID> (360)
2456

>  <Formula> (360)
C16H19N5

>  <MolWeight> (360)
281.35556

>  <Cat> (360)
S7060

>  <Name> (360)
PP1

>  <Synonyms> (360)
N/A

>  <Target> (360)
Src

>  <Form> (360)
Free Base

>  <CAS> (360)
172889-26-8

>  <URL> (360)
http://www.selleckchem.com/products/pp1.html

$$$$
CGK 733.cdx
csChFnd80/05071909292D

 35 37  0  0  0  0  0  0  0  0999 V2000
    1.2082    6.2854    0.0000 C   0  0  0  0  0  0  0  0  0  0  0  0
    1.2082    4.8854    0.0000 C   0  0  0  0  0  0  0  0  0  0  0  0
    2.4207    4.1854    0.0000 C   0  0  0  0  0  0  0  0  0  0  0  0
    3.6331    4.8854    0.0000 C   0  0  0  0  0  0  0  0  0  0  0  0
    3.6331    6.2854    0.0000 C   0  0  0  0  0  0  0  0  0  0  0  0
    2.4207    6.9854    0.0000 C   0  0  0  0  0  0  0  0  0  0  0  0
    0.0000    4.1879    0.0000 F   0  0  0  0  0  0  0  0  0  0  0  0
    2.4207    2.7903    0.0000 N   0  3  0  0  0  0  0  0  0  0  0  0
    3.6331    2.0903    0.0000 O   0  0  0  0  0  0  0  0  0  0  0  0
    1.2082    2.0903    0.0000 O   0  5  0  0  0  0  0  0  0  0  0  0
    4.8413    6.9830    0.0000 N   0  0  0  0  0  0  0  0  0  0  0  0
    6.0496    6.2854    0.0000 C   0  0  0  0  0  0  0  0  0  0  0  0
    7.2578    6.9830    0.0000 N   0  0  0  0  0  0  0  0  0  0  0  0
    6.0496    4.8903    0.0000 S   0  0  0  0  0  0  0  0  0  0  0  0
    8.4660    6.2854    0.0000 C   0  0  3  0  0  0  0  0  0  0  0  0
    9.6742    6.9830    0.0000 C   0  0  0  0  0  0  0  0  0  0  0  0
   10.3742    5.7706    0.0000 Cl  0  0  0  0  0  0  0  0  0  0  0  0
    8.9742    8.1954    0.0000 Cl  0  0  0  0  0  0  0  0  0  0  0  0
   10.8867    7.6830    0.0000 Cl  0  0  0  0  0  0  0  0  0  0  0  0
    8.4660    4.8903    0.0000 N   0  0  0  0  0  0  0  0  0  0  0  0
    9.6742    4.1927    0.0000 C   0  0  0  0  0  0  0  0  0  0  0  0
    9.6742    2.7976    0.0000 C   0  0  0  0  0  0  0  0  0  0  0  0
   10.8825    4.8903    0.0000 O   0  0  0  0  0  0  0  0  0  0  0  0
   10.8825    2.1000    0.0000 C   0  0  0  0  0  0  0  0  0  0  0  0
    8.4660    2.1000    0.0000 C   0  0  0  0  0  0  0  0  0  0  0  0
    7.2536    2.8000    0.0000 C   0  0  0  0  0  0  0  0  0  0  0  0
    6.0411    2.1000    0.0000 C   0  0  0  0  0  0  0  0  0  0  0  0
    6.0411    0.7000    0.0000 C   0  0  0  0  0  0  0  0  0  0  0  0
    7.2536    0.0000    0.0000 C   0  0  0  0  0  0  0  0  0  0  0  0
    8.4660    0.7000    0.0000 C   0  0  0  0  0  0  0  0  0  0  0  0
   10.8825    0.7000    0.0000 C   0  0  0  0  0  0  0  0  0  0  0  0
   12.0949    0.0000    0.0000 C   0  0  0  0  0  0  0  0  0  0  0  0
   13.3073    0.7000    0.0000 C   0  0  0  0  0  0  0  0  0  0  0  0
   13.3073    2.1000    0.0000 C   0  0  0  0  0  0  0  0  0  0  0  0
   12.0949    2.8000    0.0000 C   0  0  0  0  0  0  0  0  0  0  0  0
  1  2  2  0  0  0  0
  2  3  1  0  0  0  0
  3  4  2  0  0  0  0
  4  5  1  0  0  0  0
  5  6  2  0  0  0  0
  6  1  1  0  0  0  0
  2  7  1  0  0  0  0
  3  8  1  0  0  0  0
  5 11  1  0  0  0  0
 11 12  1  0  0  0  0
 12 13  1  0  0  0  0
 12 14  2  0  0  0  0
 13 15  1  0  0  0  0
 15 16  1  0  0  0  0
 15 20  1  0  0  0  0
 20 21  1  0  0  0  0
 21 22  1  0  0  0  0
 21 23  2  0  0  0  0
 22 24  1  0  0  0  0
 22 25  1  0  0  0  0
 25 26  2  0  0  0  0
 26 27  1  0  0  0  0
 27 28  2  0  0  0  0
 28 29  1  0  0  0  0
 29 30  2  0  0  0  0
 30 25  1  0  0  0  0
 24 31  2  0  0  0  0
 31 32  1  0  0  0  0
 32 33  2  0  0  0  0
 33 34  1  0  0  0  0
 34 35  2  0  0  0  0
 35 24  1  0  0  0  0
  8  9  2  0  0  0  0
  8 10  1  0  0  0  0
 16 17  1  0  0  0  0
 16 18  1  0  0  0  0
 16 19  1  0  0  0  0
M  END
>  <Mol_ID> (361)
2457

>  <Formula> (361)
C23H18Cl3FN4O3S

>  <MolWeight> (361)
555.8364232

>  <Cat> (361)
S7136

>  <Name> (361)
CGK 733

>  <Synonyms> (361)
N/A

>  <Target> (361)
ATM/ATR

>  <Form> (361)
Free Base

>  <CAS> (361)
905973-89-9

>  <URL> (361)
http://www.selleckchem.com/products/cgk-733.html

$$$$
LDK378.cdx
csChFnd80/05071909292D

 38 41  0  0  0  0  0  0  0  0999 V2000
    1.2040    5.5879    0.0000 C   0  0  0  0  0  0  0  0  0  0  0  0
    1.2040    4.1879    0.0000 C   0  0  0  0  0  0  0  0  0  0  0  0
    2.4165    3.4879    0.0000 C   0  0  0  0  0  0  0  0  0  0  0  0
    3.6289    4.1879    0.0000 C   0  0  0  0  0  0  0  0  0  0  0  0
    3.6289    5.5879    0.0000 C   0  0  0  0  0  0  0  0  0  0  0  0
    2.4165    6.2879    0.0000 C   0  0  0  0  0  0  0  0  0  0  0  0
    4.8413    3.4879    0.0000 N   0  0  0  0  0  0  0  0  0  0  0  0
    6.0538    4.1879    0.0000 C   0  0  0  0  0  0  0  0  0  0  0  0
    6.0538    5.5879    0.0000 C   0  0  0  0  0  0  0  0  0  0  0  0
    4.8413    6.2879    0.0000 Cl  0  0  0  0  0  0  0  0  0  0  0  0
    7.2662    3.4879    0.0000 N   0  0  0  0  0  0  0  0  0  0  0  0
    8.4786    4.1879    0.0000 C   0  0  0  0  0  0  0  0  0  0  0  0
    8.4786    5.5879    0.0000 N   0  0  0  0  0  0  0  0  0  0  0  0
    7.2662    6.2879    0.0000 C   0  0  0  0  0  0  0  0  0  0  0  0
    2.4165    2.0927    0.0000 S   0  0  0  0  0  0  0  0  0  0  0  0
    1.2082    1.3951    0.0000 C   0  0  0  0  0  0  0  0  0  0  0  0
    0.0000    2.0927    0.0000 C   0  0  0  0  0  0  0  0  0  0  0  0
    1.2082    0.0000    0.0000 C   0  0  0  0  0  0  0  0  0  0  0  0
    3.8165    2.0927    0.0000 O   0  0  0  0  0  0  0  0  0  0  0  0
    2.7788    0.7404    0.0000 O   0  0  0  0  0  0  0  0  0  0  0  0
    9.6869    3.4903    0.0000 N   0  0  0  0  0  0  0  0  0  0  0  0
   10.8951    4.1879    0.0000 C   0  0  0  0  0  0  0  0  0  0  0  0
   12.1075    3.4879    0.0000 C   0  0  0  0  0  0  0  0  0  0  0  0
   13.3200    4.1879    0.0000 C   0  0  0  0  0  0  0  0  0  0  0  0
   13.3200    5.5879    0.0000 C   0  0  0  0  0  0  0  0  0  0  0  0
   12.1075    6.2879    0.0000 C   0  0  0  0  0  0  0  0  0  0  0  0
   10.8951    5.5879    0.0000 C   0  0  0  0  0  0  0  0  0  0  0  0
   12.1075    7.6830    0.0000 C   0  0  0  0  0  0  0  0  0  0  0  0
   12.1075    2.0927    0.0000 O   0  0  0  0  0  0  0  0  0  0  0  0
   13.3158    1.3951    0.0000 C   0  0  0  0  0  0  0  0  0  0  0  0
   14.5240    2.0927    0.0000 C   0  0  0  0  0  0  0  0  0  0  0  0
   13.3158    0.0000    0.0000 C   0  0  0  0  0  0  0  0  0  0  0  0
   14.5282    6.2854    0.0000 C   0  0  0  0  0  0  0  0  0  0  0  0
   15.7406    5.5854    0.0000 C   0  0  0  0  0  0  0  0  0  0  0  0
   16.9531    6.2854    0.0000 C   0  0  0  0  0  0  0  0  0  0  0  0
   16.9531    7.6854    0.0000 N   0  0  0  0  0  0  0  0  0  0  0  0
   15.7406    8.3854    0.0000 C   0  0  0  0  0  0  0  0  0  0  0  0
   14.5282    7.6854    0.0000 C   0  0  0  0  0  0  0  0  0  0  0  0
  1  2  2  0  0  0  0
  2  3  1  0  0  0  0
  3  4  2  0  0  0  0
  4  5  1  0  0  0  0
  5  6  2  0  0  0  0
  6  1  1  0  0  0  0
  4  7  1  0  0  0  0
  7  8  1  0  0  0  0
  8  9  2  0  0  0  0
  9 10  1  0  0  0  0
  8 11  1  0  0  0  0
 11 12  2  0  0  0  0
 12 13  1  0  0  0  0
 13 14  2  0  0  0  0
 14  9  1  0  0  0  0
  3 15  1  0  0  0  0
 15 16  1  0  0  0  0
 16 17  1  0  0  0  0
 16 18  1  0  0  0  0
 15 19  2  0  0  0  0
 15 20  2  0  0  0  0
 12 21  1  0  0  0  0
 21 22  1  0  0  0  0
 22 23  2  0  0  0  0
 23 24  1  0  0  0  0
 24 25  2  0  0  0  0
 25 26  1  0  0  0  0
 26 27  2  0  0  0  0
 27 22  1  0  0  0  0
 26 28  1  0  0  0  0
 23 29  1  0  0  0  0
 29 30  1  0  0  0  0
 30 31  1  0  0  0  0
 30 32  1  0  0  0  0
 25 33  1  0  0  0  0
 33 34  1  0  0  0  0
 34 35  1  0  0  0  0
 35 36  1  0  0  0  0
 36 37  1  0  0  0  0
 37 38  1  0  0  0  0
 38 33  1  0  0  0  0
M  END
>  <Mol_ID> (362)
2460

>  <Formula> (362)
C28H36ClN5O3S

>  <MolWeight> (362)
558.13514

>  <Cat> (362)
S7083

>  <Name> (362)
Ceritinib (LDK378)

>  <Synonyms> (362)
N/A

>  <Target> (362)
ALK

>  <Form> (362)
Free Base

>  <CAS> (362)
1032900-25-6

>  <URL> (362)
http://www.selleckchem.com/products/ldk378.html

$$$$
LY2835219.cdx
csChFnd80/05071909292D

 42 45  0  0  0  0  0  0  0  0999 V2000
    6.0496   10.7771    0.0000 C   0  0  0  0  0  0  0  0  0  0  0  0
    6.0496    9.3771    0.0000 C   0  0  0  0  0  0  0  0  0  0  0  0
    7.2620    8.6771    0.0000 C   0  0  0  0  0  0  0  0  0  0  0  0
    8.4744    9.3771    0.0000 C   0  0  0  0  0  0  0  0  0  0  0  0
    8.4744   10.7771    0.0000 N   0  0  0  0  0  0  0  0  0  0  0  0
    7.2620   11.4771    0.0000 C   0  0  0  0  0  0  0  0  0  0  0  0
    9.6827    8.6795    0.0000 N   0  0  0  0  0  0  0  0  0  0  0  0
   10.8909    9.3771    0.0000 C   0  0  0  0  0  0  0  0  0  0  0  0
   12.1033    8.6771    0.0000 N   0  0  0  0  0  0  0  0  0  0  0  0
   13.3157    9.3771    0.0000 C   0  0  0  0  0  0  0  0  0  0  0  0
   13.3157   10.7771    0.0000 C   0  0  0  0  0  0  0  0  0  0  0  0
   12.1033   11.4771    0.0000 C   0  0  0  0  0  0  0  0  0  0  0  0
   10.8909   10.7771    0.0000 N   0  0  0  0  0  0  0  0  0  0  0  0
   14.5240   11.4747    0.0000 F   0  0  0  0  0  0  0  0  0  0  0  0
   14.5240    8.6795    0.0000 C   0  0  0  0  0  0  0  0  0  0  0  0
    4.8413   11.4747    0.0000 C   0  0  0  0  0  0  0  0  0  0  0  0
    3.6331   10.7771    0.0000 N   0  0  0  0  0  0  0  0  0  0  0  0
    2.4207   11.4771    0.0000 C   0  0  0  0  0  0  0  0  0  0  0  0
    1.2082   10.7771    0.0000 C   0  0  0  0  0  0  0  0  0  0  0  0
    1.2082    9.3771    0.0000 N   0  0  0  0  0  0  0  0  0  0  0  0
    2.4207    8.6771    0.0000 C   0  0  0  0  0  0  0  0  0  0  0  0
    3.6331    9.3771    0.0000 C   0  0  0  0  0  0  0  0  0  0  0  0
    0.0000    8.6795    0.0000 C   0  0  0  0  0  0  0  0  0  0  0  0
    0.0000    7.2844    0.0000 C   0  0  0  0  0  0  0  0  0  0  0  0
   14.5240    7.2795    0.0000 C   0  0  0  0  0  0  0  0  0  0  0  0
   15.7364    6.5795    0.0000 C   0  0  0  0  0  0  0  0  0  0  0  0
   16.9488    7.2795    0.0000 C   0  0  0  0  0  0  0  0  0  0  0  0
   16.9488    8.6795    0.0000 C   0  0  0  0  0  0  0  0  0  0  0  0
   15.7364    9.3795    0.0000 C   0  0  0  0  0  0  0  0  0  0  0  0
   18.2803    6.8469    0.0000 N   0  0  0  0  0  0  0  0  0  0  0  0
   19.1032    7.9795    0.0000 C   0  0  0  0  0  0  0  0  0  0  0  0
   18.2803    9.1121    0.0000 N   0  0  0  0  0  0  0  0  0  0  0  0
   15.7364    5.1844    0.0000 F   0  0  0  0  0  0  0  0  0  0  0  0
   18.7114   10.4390    0.0000 C   0  0  0  0  0  0  0  0  0  0  0  0
   20.4984    7.9795    0.0000 C   0  0  0  0  0  0  0  0  0  0  0  0
   20.0761   10.7291    0.0000 C   0  0  0  0  0  0  0  0  0  0  0  0
   17.7779   11.4758    0.0000 C   0  0  0  0  0  0  0  0  0  0  0  0
    7.3349    1.4000    0.0000 C   0  0  0  0  0  0  0  0  0  0  0  0
    8.7349    1.4000    0.0000 S   0  0  0  0  0  0  0  0  0  0  0  0
    8.7349    2.8000    0.0000 O   0  0  0  0  0  0  0  0  0  0  0  0
    8.7349    0.0000    0.0000 O   0  0  0  0  0  0  0  0  0  0  0  0
   10.1349    1.4000    0.0000 O   0  0  0  0  0  0  0  0  0  0  0  0
  1  2  2  0  0  0  0
  2  3  1  0  0  0  0
  3  4  2  0  0  0  0
  4  5  1  0  0  0  0
  5  6  2  0  0  0  0
  6  1  1  0  0  0  0
  4  7  1  0  0  0  0
  7  8  1  0  0  0  0
  8  9  2  0  0  0  0
  9 10  1  0  0  0  0
 10 11  2  0  0  0  0
 11 12  1  0  0  0  0
 12 13  2  0  0  0  0
 13  8  1  0  0  0  0
 11 14  1  0  0  0  0
 10 15  1  0  0  0  0
  1 16  1  0  0  0  0
 16 17  1  0  0  0  0
 17 18  1  0  0  0  0
 18 19  1  0  0  0  0
 19 20  1  0  0  0  0
 20 21  1  0  0  0  0
 21 22  1  0  0  0  0
 22 17  1  0  0  0  0
 20 23  1  0  0  0  0
 23 24  1  0  0  0  0
 15 25  2  0  0  0  0
 25 26  1  0  0  0  0
 26 27  2  0  0  0  0
 27 28  1  0  0  0  0
 28 29  2  0  0  0  0
 29 15  1  0  0  0  0
 27 30  1  0  0  0  0
 30 31  2  0  0  0  0
 31 32  1  0  0  0  0
 32 28  1  0  0  0  0
 26 33  1  0  0  0  0
 32 34  1  0  0  0  0
 31 35  1  0  0  0  0
 34 36  1  0  0  0  0
 34 37  1  0  0  0  0
 38 39  1  0  0  0  0
 39 40  2  0  0  0  0
 39 41  2  0  0  0  0
 39 42  1  0  0  0  0
M  END
>  <Mol_ID> (363)
2461

>  <Formula> (363)
C28H36F2N8O3S

>  <MolWeight> (363)
602.6990464

>  <Cat> (363)
S7158

>  <Name> (363)
abemaciclib (LY2835219)

>  <Synonyms> (363)
N/A

>  <Target> (363)
CDK

>  <Form> (363)
Mesylate

>  <CAS> (363)
1231930-82-7

>  <URL> (363)
http://www.selleckchem.com/products/ly2835219.html

$$$$
NU6027.cdx
csChFnd80/05071909292D

 18 19  0  0  0  0  0  0  0  0999 V2000
    0.0000    4.1951    0.0000 C   0  0  0  0  0  0  0  0  0  0  0  0
    0.0000    2.7951    0.0000 C   0  0  0  0  0  0  0  0  0  0  0  0
    1.2124    2.0951    0.0000 C   0  0  0  0  0  0  0  0  0  0  0  0
    2.4249    2.7951    0.0000 C   0  0  0  0  0  0  0  0  0  0  0  0
    2.4249    4.1951    0.0000 C   0  0  0  0  0  0  0  0  0  0  0  0
    1.2124    4.8951    0.0000 C   0  0  0  0  0  0  0  0  0  0  0  0
    3.6331    4.8927    0.0000 C   0  0  0  0  0  0  0  0  0  0  0  0
    4.8413    4.1951    0.0000 O   0  0  0  0  0  0  0  0  0  0  0  0
    4.8413    2.8000    0.0000 C   0  0  0  0  0  0  0  0  0  0  0  0
    3.6289    2.1000    0.0000 N   0  0  0  0  0  0  0  0  0  0  0  0
    3.6289    0.7000    0.0000 C   0  0  0  0  0  0  0  0  0  0  0  0
    4.8413    0.0000    0.0000 N   0  0  0  0  0  0  0  0  0  0  0  0
    6.0538    0.7000    0.0000 C   0  0  0  0  0  0  0  0  0  0  0  0
    6.0538    2.1000    0.0000 C   0  0  0  0  0  0  0  0  0  0  0  0
    2.4207    0.0024    0.0000 N   0  0  0  0  0  0  0  0  0  0  0  0
    7.2620    2.7976    0.0000 N   0  0  0  0  0  0  0  0  0  0  0  0
    7.2620    0.0024    0.0000 N   0  0  0  0  0  0  0  0  0  0  0  0
    7.2620    4.1927    0.0000 O   0  0  0  0  0  0  0  0  0  0  0  0
  1  2  1  0  0  0  0
  2  3  1  0  0  0  0
  3  4  1  0  0  0  0
  4  5  1  0  0  0  0
  5  6  1  0  0  0  0
  6  1  1  0  0  0  0
  5  7  1  0  0  0  0
  7  8  1  0  0  0  0
  8  9  1  0  0  0  0
  9 10  2  0  0  0  0
 10 11  1  0  0  0  0
 11 12  2  0  0  0  0
 12 13  1  0  0  0  0
 13 14  2  0  0  0  0
 14  9  1  0  0  0  0
 11 15  1  0  0  0  0
 14 16  1  0  0  0  0
 13 17  1  0  0  0  0
 16 18  2  0  0  0  0
M  END
>  <Mol_ID> (364)
2463

>  <Formula> (364)
C11H17N5O2

>  <MolWeight> (364)
251.28498

>  <Cat> (364)
S7114

>  <Name> (364)
NU6027

>  <Synonyms> (364)
N/A

>  <Target> (364)
CDK

>  <Form> (364)
Free Base

>  <CAS> (364)
220036-08-8

>  <URL> (364)
http://www.selleckchem.com/products/nu6027.html

$$$$
CNX-2006.cdx
csChFnd80/05071909292D

 39 42  0  0  0  0  0  0  0  0999 V2000
    2.4249    4.1951    0.0000 C   0  0  0  0  0  0  0  0  0  0  0  0
    2.4249    2.7951    0.0000 C   0  0  0  0  0  0  0  0  0  0  0  0
    3.6373    2.0951    0.0000 N   0  0  0  0  0  0  0  0  0  0  0  0
    4.8497    2.7951    0.0000 C   0  0  0  0  0  0  0  0  0  0  0  0
    4.8497    4.1951    0.0000 N   0  0  0  0  0  0  0  0  0  0  0  0
    3.6373    4.8951    0.0000 C   0  0  0  0  0  0  0  0  0  0  0  0
    3.6373    6.2951    0.0000 N   0  0  0  0  0  0  0  0  0  0  0  0
    1.2124    4.8951    0.0000 C   0  0  0  0  0  0  0  0  0  0  0  0
    1.9124    6.1076    0.0000 F   0  0  0  0  0  0  0  0  0  0  0  0
    0.5124    3.6827    0.0000 F   0  0  0  0  0  0  0  0  0  0  0  0
    0.0000    5.5951    0.0000 F   0  0  0  0  0  0  0  0  0  0  0  0
    6.0622    2.0951    0.0000 N   0  0  0  0  0  0  0  0  0  0  0  0
    4.8497    6.9951    0.0000 C   0  0  0  0  0  0  0  0  0  0  0  0
    6.0622    6.2951    0.0000 C   0  0  0  0  0  0  0  0  0  0  0  0
    7.2746    6.9951    0.0000 C   0  0  0  0  0  0  0  0  0  0  0  0
    7.2746    8.3951    0.0000 C   0  0  0  0  0  0  0  0  0  0  0  0
    6.0622    9.0951    0.0000 C   0  0  0  0  0  0  0  0  0  0  0  0
    4.8497    8.3951    0.0000 C   0  0  0  0  0  0  0  0  0  0  0  0
    6.0622   10.4951    0.0000 N   0  0  0  0  0  0  0  0  0  0  0  0
    7.2746   11.1951    0.0000 C   0  0  0  0  0  0  0  0  0  0  0  0
    8.4870   10.4951    0.0000 C   0  0  0  0  0  0  0  0  0  0  0  0
    7.2746   12.5951    0.0000 O   0  0  0  0  0  0  0  0  0  0  0  0
    9.6995   11.1951    0.0000 C   0  0  0  0  0  0  0  0  0  0  0  0
    7.2704    2.7927    0.0000 C   0  0  0  0  0  0  0  0  0  0  0  0
    8.4828    2.0927    0.0000 C   0  0  0  0  0  0  0  0  0  0  0  0
    9.6953    2.7927    0.0000 C   0  0  0  0  0  0  0  0  0  0  0  0
    9.6953    4.1927    0.0000 C   0  0  0  0  0  0  0  0  0  0  0  0
    8.4828    4.8927    0.0000 C   0  0  0  0  0  0  0  0  0  0  0  0
    7.2704    4.1927    0.0000 C   0  0  0  0  0  0  0  0  0  0  0  0
    8.4828    0.6976    0.0000 O   0  0  0  0  0  0  0  0  0  0  0  0
    7.2746    0.0000    0.0000 C   0  0  0  0  0  0  0  0  0  0  0  0
   10.9035    4.8903    0.0000 N   0  0  0  0  0  0  0  0  0  0  0  0
   12.1117    4.1927    0.0000 C   0  0  0  0  0  0  0  0  0  0  0  0
   12.4741    2.8404    0.0000 C   0  0  0  0  0  0  0  0  0  0  0  0
   13.8264    3.2028    0.0000 N   0  0  0  0  0  0  0  0  0  0  0  0
   13.4640    4.5551    0.0000 C   0  0  0  0  0  0  0  0  0  0  0  0
   15.0346    2.5052    0.0000 C   0  0  0  0  0  0  0  0  0  0  0  0
   16.2428    3.2028    0.0000 C   0  0  0  0  0  0  0  0  0  0  0  0
   17.4510    2.5052    0.0000 F   0  0  0  0  0  0  0  0  0  0  0  0
  1  2  2  0  0  0  0
  2  3  1  0  0  0  0
  3  4  2  0  0  0  0
  4  5  1  0  0  0  0
  5  6  2  0  0  0  0
  6  1  1  0  0  0  0
  6  7  1  0  0  0  0
  1  8  1  0  0  0  0
  4 12  1  0  0  0  0
  7 13  1  0  0  0  0
 13 14  2  0  0  0  0
 14 15  1  0  0  0  0
 15 16  2  0  0  0  0
 16 17  1  0  0  0  0
 17 18  2  0  0  0  0
 18 13  1  0  0  0  0
 17 19  1  0  0  0  0
 19 20  1  0  0  0  0
 20 21  1  0  0  0  0
 20 22  2  0  0  0  0
 21 23  2  0  0  0  0
 12 24  1  0  0  0  0
 24 25  2  0  0  0  0
 25 26  1  0  0  0  0
 26 27  2  0  0  0  0
 27 28  1  0  0  0  0
 28 29  2  0  0  0  0
 29 24  1  0  0  0  0
 25 30  1  0  0  0  0
 30 31  1  0  0  0  0
 27 32  1  0  0  0  0
 32 33  1  0  0  0  0
 33 34  1  0  0  0  0
 34 35  1  0  0  0  0
 35 36  1  0  0  0  0
 36 33  1  0  0  0  0
 35 37  1  0  0  0  0
 37 38  1  0  0  0  0
 38 39  1  0  0  0  0
  8  9  1  0  0  0  0
  8 10  1  0  0  0  0
  8 11  1  0  0  0  0
M  END
>  <Mol_ID> (365)
2472

>  <Formula> (365)
C26H27F4N7O2

>  <MolWeight> (365)
545.5318928

>  <Cat> (365)
S7206

>  <Name> (365)
CNX-2006

>  <Synonyms> (365)
N/A

>  <Target> (365)
EGFR

>  <Form> (365)
Free Base

>  <CAS> (365)
1375465-09-0

>  <URL> (365)
http://www.selleckchem.com/products/cnx-2006.html

$$$$
GZD824.cdx
csChFnd80/05071909292D

 49 51  0  0  0  0  0  0  0  0999 V2000
    4.1988    1.2124    0.0000 C   0  0  0  0  0  0  0  0  0  0  0  0
    5.5988    1.2124    0.0000 C   0  0  0  0  0  0  0  0  0  0  0  0
    6.2988    2.4249    0.0000 C   0  0  0  0  0  0  0  0  0  0  0  0
    5.5988    3.6373    0.0000 C   0  0  0  0  0  0  0  0  0  0  0  0
    4.1988    3.6373    0.0000 C   0  0  0  0  0  0  0  0  0  0  0  0
    3.4988    2.4249    0.0000 C   0  0  0  0  0  0  0  0  0  0  0  0
    3.4988    4.8497    0.0000 C   0  0  0  0  0  0  0  0  0  0  0  0
    2.0988    2.4249    0.0000 C   0  0  0  0  0  0  0  0  0  0  0  0
    7.6988    2.4249    0.0000 C   0  0  0  0  0  0  0  0  0  0  0  0
    8.3988    3.6373    0.0000 N   0  0  0  0  0  0  0  0  0  0  0  0
    8.3988    1.2124    0.0000 O   0  0  0  0  0  0  0  0  0  0  0  0
    9.7988    3.6373    0.0000 C   0  0  0  0  0  0  0  0  0  0  0  0
   10.4988    2.4249    0.0000 C   0  0  0  0  0  0  0  0  0  0  0  0
   11.8988    2.4249    0.0000 C   0  0  0  0  0  0  0  0  0  0  0  0
   12.5988    3.6373    0.0000 C   0  0  0  0  0  0  0  0  0  0  0  0
   11.8988    4.8497    0.0000 C   0  0  0  0  0  0  0  0  0  0  0  0
   10.4988    4.8497    0.0000 C   0  0  0  0  0  0  0  0  0  0  0  0
   12.5988    1.2124    0.0000 C   0  0  0  0  0  0  0  0  0  0  0  0
   13.8112    1.9124    0.0000 F   0  0  0  0  0  0  0  0  0  0  0  0
   13.2988    0.0000    0.0000 F   0  0  0  0  0  0  0  0  0  0  0  0
   11.3863    0.5124    0.0000 F   0  0  0  0  0  0  0  0  0  0  0  0
   13.9988    3.6373    0.0000 C   0  0  0  0  0  0  0  0  0  0  0  0
   14.6988    4.8497    0.0000 N   0  0  0  0  0  0  0  0  0  0  0  0
   16.0988    4.8497    0.0000 C   0  0  0  0  0  0  0  0  0  0  0  0
   16.7988    6.0622    0.0000 C   0  0  0  0  0  0  0  0  0  0  0  0
   16.0988    7.2746    0.0000 N   0  0  0  0  0  0  0  0  0  0  0  0
   14.6988    7.2746    0.0000 C   0  0  0  0  0  0  0  0  0  0  0  0
   13.9988    6.0622    0.0000 C   0  0  0  0  0  0  0  0  0  0  0  0
   16.7988    8.4871    0.0000 C   0  0  0  0  0  0  0  0  0  0  0  0
    2.7988    6.0607    0.0000 C   0  0  0  0  0  0  0  0  0  0  0  0
    2.0988    7.2717    0.0000 C   0  0  0  0  0  0  0  0  0  0  0  0
    2.7975    8.4849    0.0000 C   0  0  0  0  0  0  0  0  0  0  0  0
    2.0988    9.6966    0.0000 C   0  0  0  0  0  0  0  0  0  0  0  0
    0.6988    9.6966    0.0000 C   0  0  0  0  0  0  0  0  0  0  0  0
    0.0000    8.4849    0.0000 N   0  0  0  0  0  0  0  0  0  0  0  0
    0.6988    7.2717    0.0000 C   0  0  0  0  0  0  0  0  0  0  0  0
    2.5314   11.0281    0.0000 C   0  0  0  0  0  0  0  0  0  0  0  0
    1.3988   11.8510    0.0000 N   0  0  0  0  0  0  0  0  0  0  0  0
    0.2661   11.0281    0.0000 N   0  0  0  0  0  0  0  0  0  0  0  0
    5.4473   10.5428    0.0000 C   0  0  0  0  0  0  0  0  0  0  0  0
    6.8425   10.5428    0.0000 S   0  0  0  0  0  0  0  0  0  0  0  0
    6.8425   11.9380    0.0000 O   0  0  0  0  0  0  0  0  0  0  0  0
    6.8425    9.1477    0.0000 O   0  0  0  0  0  0  0  0  0  0  0  0
    8.2376   10.5428    0.0000 O   0  0  0  0  0  0  0  0  0  0  0  0
   10.2893   10.6328    0.0000 C   0  0  0  0  0  0  0  0  0  0  0  0
   11.6844   10.6328    0.0000 S   0  0  0  0  0  0  0  0  0  0  0  0
   11.6844   12.0279    0.0000 O   0  0  0  0  0  0  0  0  0  0  0  0
   11.6844    9.2376    0.0000 O   0  0  0  0  0  0  0  0  0  0  0  0
   13.0796   10.6328    0.0000 O   0  0  0  0  0  0  0  0  0  0  0  0
  1  2  2  0  0  0  0
  2  3  1  0  0  0  0
  3  4  2  0  0  0  0
  4  5  1  0  0  0  0
  5  6  2  0  0  0  0
  6  1  1  0  0  0  0
  5  7  1  0  0  0  0
  6  8  1  0  0  0  0
  3  9  1  0  0  0  0
  9 10  1  0  0  0  0
  9 11  2  0  0  0  0
 10 12  1  0  0  0  0
 12 13  2  0  0  0  0
 13 14  1  0  0  0  0
 14 15  2  0  0  0  0
 15 16  1  0  0  0  0
 16 17  2  0  0  0  0
 17 12  1  0  0  0  0
 14 18  1  0  0  0  0
 15 22  1  0  0  0  0
 22 23  1  0  0  0  0
 23 24  1  0  0  0  0
 24 25  1  0  0  0  0
 25 26  1  0  0  0  0
 26 27  1  0  0  0  0
 27 28  1  0  0  0  0
 28 23  1  0  0  0  0
 26 29  1  0  0  0  0
  7 30  3  0  0  0  0
 30 31  1  0  0  0  0
 31 32  2  0  0  0  0
 32 33  1  0  0  0  0
 33 34  2  0  0  0  0
 34 35  1  0  0  0  0
 35 36  2  0  0  0  0
 36 31  1  0  0  0  0
 33 37  1  0  0  0  0
 37 38  2  0  0  0  0
 38 39  1  0  0  0  0
 39 34  1  0  0  0  0
 18 19  1  0  0  0  0
 18 20  1  0  0  0  0
 18 21  1  0  0  0  0
 40 41  1  0  0  0  0
 41 42  2  0  0  0  0
 41 43  2  0  0  0  0
 41 44  1  0  0  0  0
 45 46  1  0  0  0  0
 46 47  2  0  0  0  0
 46 48  2  0  0  0  0
 46 49  1  0  0  0  0
M  END
>  <Mol_ID> (366)
2473

>  <Formula> (366)
C31H35F3N6O7S2

>  <MolWeight> (366)
724.7708096

>  <Cat> (366)
S7194

>  <Name> (366)
GZD824 Dimesylate 

>  <Synonyms> (366)
N/A

>  <Target> (366)
Bcr-Abl

>  <Form> (366)
Mesylate

>  <CAS> (366)
1421783-64-3

>  <URL> (366)
http://www.selleckchem.com/products/gzd824.html

$$$$
RKI-1447.cdx
csChFnd80/05071909292D

 23 25  0  0  0  0  0  0  0  0999 V2000
    0.0000    2.1000    0.0000 C   0  0  0  0  0  0  0  0  0  0  0  0
    0.0000    0.7000    0.0000 N   0  0  0  0  0  0  0  0  0  0  0  0
    1.2124    0.0000    0.0000 C   0  0  0  0  0  0  0  0  0  0  0  0
    2.4249    0.7000    0.0000 C   0  0  0  0  0  0  0  0  0  0  0  0
    2.4249    2.1000    0.0000 C   0  0  0  0  0  0  0  0  0  0  0  0
    1.2124    2.8000    0.0000 C   0  0  0  0  0  0  0  0  0  0  0  0
    3.6373    2.8000    0.0000 C   0  0  0  0  0  0  0  0  0  0  0  0
    4.9163    2.2306    0.0000 N   0  0  0  0  0  0  0  0  0  0  0  0
    5.8531    3.2710    0.0000 C   0  0  0  0  0  0  0  0  0  0  0  0
    5.1531    4.4834    0.0000 S   0  0  0  0  0  0  0  0  0  0  0  0
    3.7836    4.1923    0.0000 C   0  0  0  0  0  0  0  0  0  0  0  0
    7.2454    3.1246    0.0000 N   0  0  0  0  0  0  0  0  0  0  0  0
    8.1684    4.1773    0.0000 C   0  0  0  0  0  0  0  0  0  0  0  0
    9.5415    3.9042    0.0000 N   0  0  0  0  0  0  0  0  0  0  0  0
    7.7183    5.5029    0.0000 O   0  0  0  0  0  0  0  0  0  0  0  0
   10.4645    4.9569    0.0000 C   0  0  0  0  0  0  0  0  0  0  0  0
   11.8377    4.6838    0.0000 C   0  0  0  0  0  0  0  0  0  0  0  0
   12.2878    3.3581    0.0000 C   0  0  0  0  0  0  0  0  0  0  0  0
   13.6609    3.0851    0.0000 C   0  0  0  0  0  0  0  0  0  0  0  0
   14.5839    4.1377    0.0000 C   0  0  0  0  0  0  0  0  0  0  0  0
   14.1338    5.4634    0.0000 C   0  0  0  0  0  0  0  0  0  0  0  0
   12.7607    5.7364    0.0000 C   0  0  0  0  0  0  0  0  0  0  0  0
   15.0568    6.5160    0.0000 O   0  0  0  0  0  0  0  0  0  0  0  0
  1  2  2  0  0  0  0
  2  3  1  0  0  0  0
  3  4  2  0  0  0  0
  4  5  1  0  0  0  0
  5  6  2  0  0  0  0
  6  1  1  0  0  0  0
  5  7  1  0  0  0  0
  7  8  1  0  0  0  0
  8  9  2  0  0  0  0
  9 10  1  0  0  0  0
 10 11  1  0  0  0  0
 11  7  2  0  0  0  0
  9 12  1  0  0  0  0
 12 13  1  0  0  0  0
 13 14  1  0  0  0  0
 13 15  2  0  0  0  0
 14 16  1  0  0  0  0
 16 17  1  0  0  0  0
 17 18  2  0  0  0  0
 18 19  1  0  0  0  0
 19 20  2  0  0  0  0
 20 21  1  0  0  0  0
 21 22  2  0  0  0  0
 22 17  1  0  0  0  0
 21 23  1  0  0  0  0
M  END
>  <Mol_ID> (367)
2475

>  <Formula> (367)
C16H14N4O2S

>  <MolWeight> (367)
326.37296

>  <Cat> (367)
S7195

>  <Name> (367)
RKI-1447

>  <Synonyms> (367)
N/A

>  <Target> (367)
ROCK

>  <Form> (367)
Free Base

>  <CAS> (367)
1342278-01-6

>  <URL> (367)
http://www.selleckchem.com/products/rki-1447.html

$$$$
untitled.cdx
csChFnd80/05071909292D

 32 36  0  0  0  0  0  0  0  0999 V2000
    4.4834    8.7904    0.0000 C   0  0  0  0  0  0  0  0  0  0  0  0
    4.1923    7.4210    0.0000 C   0  0  0  0  0  0  0  0  0  0  0  0
    5.2327    6.4842    0.0000 C   0  0  0  0  0  0  0  0  0  0  0  0
    6.5642    6.9168    0.0000 C   0  0  0  0  0  0  0  0  0  0  0  0
    6.8553    8.2862    0.0000 C   0  0  0  0  0  0  0  0  0  0  0  0
    5.8149    9.2230    0.0000 C   0  0  0  0  0  0  0  0  0  0  0  0
    3.2710    9.4904    0.0000 N   0  0  0  0  0  0  0  0  0  0  0  0
    2.2306    8.5536    0.0000 C   0  0  0  0  0  0  0  0  0  0  0  0
    2.8000    7.2746    0.0000 C   0  0  0  0  0  0  0  0  0  0  0  0
    2.1000    6.0622    0.0000 C   0  0  0  0  0  0  0  0  0  0  0  0
    0.7000    6.0622    0.0000 C   0  0  0  0  0  0  0  0  0  0  0  0
    0.0000    4.8497    0.0000 C   0  0  0  0  0  0  0  0  0  0  0  0
    0.7000    3.6373    0.0000 N   0  0  0  0  0  0  0  0  0  0  0  0
    2.1000    3.6373    0.0000 C   0  0  0  0  0  0  0  0  0  0  0  0
    2.8000    4.8497    0.0000 N   0  0  0  0  0  0  0  0  0  0  0  0
    2.8000    2.4249    0.0000 N   0  0  0  0  0  0  0  0  0  0  0  0
    0.0000    7.2746    0.0000 Cl  0  0  0  0  0  0  0  0  0  0  0  0
    4.2000    2.4249    0.0000 C   0  0  0  0  0  0  0  0  0  0  0  0
    4.9000    1.2124    0.0000 C   0  0  0  0  0  0  0  0  0  0  0  0
    6.3000    1.2124    0.0000 C   0  0  0  0  0  0  0  0  0  0  0  0
    7.0000    2.4249    0.0000 C   0  0  0  0  0  0  0  0  0  0  0  0
    6.3000    3.6373    0.0000 C   0  0  0  0  0  0  0  0  0  0  0  0
    4.9000    3.6373    0.0000 C   0  0  0  0  0  0  0  0  0  0  0  0
    4.2000    0.0000    0.0000 O   0  0  0  0  0  0  0  0  0  0  0  0
    2.8000    0.0000    0.0000 C   0  0  0  0  0  0  0  0  0  0  0  0
    8.4000    2.4249    0.0000 N   0  0  0  0  0  0  0  0  0  0  0  0
    9.1000    1.2124    0.0000 C   0  0  0  0  0  0  0  0  0  0  0  0
   10.5000    1.2124    0.0000 C   0  0  0  0  0  0  0  0  0  0  0  0
   11.2000    2.4249    0.0000 C   0  0  0  0  0  0  0  0  0  0  0  0
   10.5000    3.6373    0.0000 C   0  0  0  0  0  0  0  0  0  0  0  0
    9.1000    3.6373    0.0000 C   0  0  0  0  0  0  0  0  0  0  0  0
   12.6000    2.4249    0.0000 N   0  0  0  0  0  0  0  0  0  0  0  0
  1  2  2  0  0  0  0
  2  3  1  0  0  0  0
  3  4  2  0  0  0  0
  4  5  1  0  0  0  0
  5  6  2  0  0  0  0
  6  1  1  0  0  0  0
  1  7  1  0  0  0  0
  7  8  1  0  0  0  0
  8  9  2  0  0  0  0
  9  2  1  0  0  0  0
  9 10  1  0  0  0  0
 10 11  2  0  0  0  0
 11 12  1  0  0  0  0
 12 13  2  0  0  0  0
 13 14  1  0  0  0  0
 14 15  2  0  0  0  0
 15 10  1  0  0  0  0
 14 16  1  0  0  0  0
 11 17  1  0  0  0  0
 16 18  1  0  0  0  0
 18 19  2  0  0  0  0
 19 20  1  0  0  0  0
 20 21  2  0  0  0  0
 21 22  1  0  0  0  0
 22 23  2  0  0  0  0
 23 18  1  0  0  0  0
 19 24  1  0  0  0  0
 24 25  1  0  0  0  0
 21 26  1  0  0  0  0
 26 27  1  0  0  0  0
 27 28  1  0  0  0  0
 28 29  1  0  0  0  0
 29 30  1  0  0  0  0
 30 31  1  0  0  0  0
 31 26  1  0  0  0  0
 29 32  1  0  0  0  0
M  END
>  <Mol_ID> (368)
2477

>  <Formula> (368)
C24H25ClN6O

>  <MolWeight> (368)
448.9479

>  <Cat> (368)
S7106

>  <Name> (368)
AZD3463

>  <Synonyms> (368)
N/A

>  <Target> (368)
ALK

>  <Form> (368)
Free Base

>  <CAS> (368)
1356962-20-3

>  <URL> (368)
http://www.selleckchem.com/products/azd3463.html

$$$$
PYR 41.cdx
csChFnd80/05071909292D

 27 29  0  0  0  0  0  0  0  0999 V2000
    5.9430    6.3344    0.0000 N   0  0  0  0  0  0  0  0  0  0  0  0
    5.9430    4.9344    0.0000 N   0  0  0  0  0  0  0  0  0  0  0  0
    7.2745    4.5017    0.0000 C   0  0  0  0  0  0  0  0  0  0  0  0
    8.0974    5.6344    0.0000 C   0  0  0  0  0  0  0  0  0  0  0  0
    7.2745    6.7670    0.0000 C   0  0  0  0  0  0  0  0  0  0  0  0
    7.7056    8.0939    0.0000 O   0  0  0  0  0  0  0  0  0  0  0  0
    7.7056    3.1749    0.0000 O   0  0  0  0  0  0  0  0  0  0  0  0
    4.8143    4.1143    0.0000 C   0  0  0  0  0  0  0  0  0  0  0  0
    3.5353    4.6838    0.0000 C   0  0  0  0  0  0  0  0  0  0  0  0
    2.4027    3.8609    0.0000 C   0  0  0  0  0  0  0  0  0  0  0  0
    2.5490    2.4685    0.0000 C   0  0  0  0  0  0  0  0  0  0  0  0
    3.8280    1.8991    0.0000 C   0  0  0  0  0  0  0  0  0  0  0  0
    4.9606    2.7220    0.0000 C   0  0  0  0  0  0  0  0  0  0  0  0
    1.4204    1.6485    0.0000 C   0  0  0  0  0  0  0  0  0  0  0  0
    1.5662    0.2610    0.0000 O   0  0  0  0  0  0  0  0  0  0  0  0
    0.1458    2.2159    0.0000 O   0  0  0  0  0  0  0  0  0  0  0  0
    0.0000    3.6034    0.0000 C   0  0  0  0  0  0  0  0  0  0  0  0
    1.0856    4.4798    0.0000 C   0  0  0  0  0  0  0  0  0  0  0  0
    9.4925    5.6344    0.0000 C   0  0  0  0  0  0  0  0  0  0  0  0
   10.1901    4.4261    0.0000 C   0  0  0  0  0  0  0  0  0  0  0  0
    9.6206    3.1472    0.0000 O   0  0  0  0  0  0  0  0  0  0  0  0
   10.6610    2.2104    0.0000 C   0  0  0  0  0  0  0  0  0  0  0  0
   11.8735    2.9104    0.0000 C   0  0  0  0  0  0  0  0  0  0  0  0
   11.5824    4.2798    0.0000 C   0  0  0  0  0  0  0  0  0  0  0  0
   10.5152    0.8229    0.0000 N   0  3  0  0  0  0  0  0  0  0  0  0
   11.6478    0.0000    0.0000 O   0  0  0  0  0  0  0  0  0  0  0  0
    9.2363    0.2535    0.0000 O   0  5  0  0  0  0  0  0  0  0  0  0
  1  2  1  0  0  0  0
  2  3  1  0  0  0  0
  3  4  1  0  0  0  0
  4  5  1  0  0  0  0
  5  1  1  0  0  0  0
  5  6  2  0  0  0  0
  3  7  2  0  0  0  0
  2  8  1  0  0  0  0
  8  9  2  0  0  0  0
  9 10  1  0  0  0  0
 10 11  2  0  0  0  0
 11 12  1  0  0  0  0
 12 13  2  0  0  0  0
 13  8  1  0  0  0  0
 11 14  1  0  0  0  0
 14 15  2  0  0  0  0
 14 16  1  0  0  0  0
 16 17  1  0  0  0  0
 17 18  1  0  0  0  0
  4 19  2  0  0  0  0
 19 20  1  0  0  0  0
 20 21  1  0  0  0  0
 21 22  1  0  0  0  0
 22 23  2  0  0  0  0
 23 24  1  0  0  0  0
 24 20  2  0  0  0  0
 22 25  1  0  0  0  0
 25 26  2  0  0  0  0
 25 27  1  0  0  0  0
M  END
>  <Mol_ID> (369)
2495

>  <Formula> (369)
C17H13N3O7

>  <MolWeight> (369)
371.30102

>  <Cat> (369)
S7129

>  <Name> (369)
PYR-41

>  <Synonyms> (369)
N/A

>  <Target> (369)
E1 Activating

>  <Form> (369)
Free Base

>  <CAS> (369)
418805-02-4

>  <URL> (369)
http://www.selleckchem.com/products/pyr-41.html

$$$$
AZD1080.cdx
csChFnd80/05071909292D

 25 28  0  0  0  0  0  0  0  0999 V2000
    2.4207    9.0619    0.0000 C   0  0  0  0  0  0  0  0  0  0  0  0
    2.4207    7.6619    0.0000 C   0  0  0  0  0  0  0  0  0  0  0  0
    3.6331    6.9619    0.0000 C   0  0  0  0  0  0  0  0  0  0  0  0
    4.8455    7.6619    0.0000 C   0  0  0  0  0  0  0  0  0  0  0  0
    4.8455    9.0619    0.0000 C   0  0  0  0  0  0  0  0  0  0  0  0
    3.6331    9.7619    0.0000 C   0  0  0  0  0  0  0  0  0  0  0  0
    1.2124    6.9643    0.0000 C   0  0  0  0  0  0  0  0  0  0  0  0
    0.0000    6.2643    0.0000 N   0  0  0  0  0  0  0  0  0  0  0  0
    6.1770    7.2293    0.0000 C   0  0  0  0  0  0  0  0  0  0  0  0
    6.9999    8.3619    0.0000 C   0  0  0  0  0  0  0  0  0  0  0  0
    6.1770    9.4945    0.0000 N   0  0  0  0  0  0  0  0  0  0  0  0
    8.3951    8.3619    0.0000 O   0  0  0  0  0  0  0  0  0  0  0  0
    6.6081    5.9024    0.0000 C   0  0  0  0  0  0  0  0  0  0  0  0
    5.6714    4.8620    0.0000 C   0  0  0  0  0  0  0  0  0  0  0  0
    6.1040    3.5306    0.0000 C   0  0  0  0  0  0  0  0  0  0  0  0
    7.4734    3.2395    0.0000 C   0  0  0  0  0  0  0  0  0  0  0  0
    8.4102    4.2799    0.0000 C   0  0  0  0  0  0  0  0  0  0  0  0
    7.9775    5.6114    0.0000 N   0  0  0  0  0  0  0  0  0  0  0  0
    7.9045    1.9126    0.0000 C   0  0  0  0  0  0  0  0  0  0  0  0
    9.2692    1.6226    0.0000 N   0  0  0  0  0  0  0  0  0  0  0  0
    9.7018    0.2911    0.0000 C   0  0  0  0  0  0  0  0  0  0  0  0
   11.0712    0.0000    0.0000 C   0  0  0  0  0  0  0  0  0  0  0  0
   12.0080    1.0404    0.0000 O   0  0  0  0  0  0  0  0  0  0  0  0
   11.5753    2.3719    0.0000 C   0  0  0  0  0  0  0  0  0  0  0  0
   10.2059    2.6630    0.0000 C   0  0  0  0  0  0  0  0  0  0  0  0
  1  2  2  0  0  0  0
  2  3  1  0  0  0  0
  3  4  2  0  0  0  0
  4  5  1  0  0  0  0
  5  6  2  0  0  0  0
  6  1  1  0  0  0  0
  2  7  1  0  0  0  0
  4  9  1  0  0  0  0
  9 10  2  0  0  0  0
 10 11  1  0  0  0  0
 11  5  1  0  0  0  0
 10 12  1  0  0  0  0
  9 13  1  0  0  0  0
 13 14  2  0  0  0  0
 14 15  1  0  0  0  0
 15 16  2  0  0  0  0
 16 17  1  0  0  0  0
 17 18  2  0  0  0  0
 18 13  1  0  0  0  0
 16 19  1  0  0  0  0
 19 20  1  0  0  0  0
 20 21  1  0  0  0  0
 21 22  1  0  0  0  0
 22 23  1  0  0  0  0
 23 24  1  0  0  0  0
 24 25  1  0  0  0  0
 25 20  1  0  0  0  0
  7  8  3  0  0  0  0
M  END
>  <Mol_ID> (370)
2503

>  <Formula> (370)
C19H18N4O2

>  <MolWeight> (370)
334.37182

>  <Cat> (370)
S7145

>  <Name> (370)
AZD1080

>  <Synonyms> (370)
N/A

>  <Target> (370)
GSK-3

>  <Form> (370)
Free Base

>  <CAS> (370)
612487-72-6

>  <URL> (370)
http://www.selleckchem.com/products/azd1080.html

$$$$
SKI II (SphK-I2).cdx
csChFnd80/05071909292D

 20 22  0  0  0  0  0  0  0  0999 V2000
    5.6000    1.2124    0.0000 C   0  0  0  0  0  0  0  0  0  0  0  0
    4.2000    1.2124    0.0000 C   0  0  0  0  0  0  0  0  0  0  0  0
    6.4229    2.3451    0.0000 N   0  0  0  0  0  0  0  0  0  0  0  0
    6.4229    0.0798    0.0000 C   0  0  0  0  0  0  0  0  0  0  0  0
    3.5000    2.4249    0.0000 C   0  0  0  0  0  0  0  0  0  0  0  0
    3.5000    0.0000    0.0000 C   0  0  0  0  0  0  0  0  0  0  0  0
    7.7544    1.9124    0.0000 C   0  0  0  0  0  0  0  0  0  0  0  0
    7.7544    0.5124    0.0000 S   0  0  0  0  0  0  0  0  0  0  0  0
    2.1000    2.4249    0.0000 C   0  0  0  0  0  0  0  0  0  0  0  0
    2.1000    0.0000    0.0000 C   0  0  0  0  0  0  0  0  0  0  0  0
    8.8870    2.7353    0.0000 N   0  0  0  0  0  0  0  0  0  0  0  0
    1.4000    1.2124    0.0000 C   0  0  0  0  0  0  0  0  0  0  0  0
   10.1660    2.1659    0.0000 C   0  0  0  0  0  0  0  0  0  0  0  0
    0.0000    1.2124    0.0000 Cl  0  0  0  0  0  0  0  0  0  0  0  0
   11.2986    2.9888    0.0000 C   0  0  0  0  0  0  0  0  0  0  0  0
   10.3123    0.7736    0.0000 C   0  0  0  0  0  0  0  0  0  0  0  0
   12.5776    2.4194    0.0000 C   0  0  0  0  0  0  0  0  0  0  0  0
   11.5913    0.2041    0.0000 C   0  0  0  0  0  0  0  0  0  0  0  0
   12.7239    1.0270    0.0000 C   0  0  0  0  0  0  0  0  0  0  0  0
   14.0029    0.4576    0.0000 O   0  0  0  0  0  0  0  0  0  0  0  0
  1  2  1  0  0  0  0
  1  3  1  0  0  0  0
  1  4  2  0  0  0  0
  2  5  2  0  0  0  0
  2  6  1  0  0  0  0
  3  7  2  0  0  0  0
  4  8  1  0  0  0  0
  5  9  1  0  0  0  0
  6 10  2  0  0  0  0
  7 11  1  0  0  0  0
  7  8  1  0  0  0  0
  9 12  2  0  0  0  0
 10 12  1  0  0  0  0
 11 13  1  0  0  0  0
 12 14  1  0  0  0  0
 13 15  2  0  0  0  0
 13 16  1  0  0  0  0
 15 17  1  0  0  0  0
 16 18  2  0  0  0  0
 17 19  2  0  0  0  0
 18 19  1  0  0  0  0
 19 20  1  0  0  0  0
M  END
>  <Mol_ID> (371)
2510

>  <Formula> (371)
C15H11ClN2OS

>  <MolWeight> (371)
302.77864

>  <Cat> (371)
S7176

>  <Name> (371)
SKI II

>  <Synonyms> (371)
SphK-I2, Sphingosine Kinase Inhibitor 2

>  <Target> (371)
S1P Receptor

>  <Form> (371)
Free Base

>  <CAS> (371)
312636-16-1

>  <URL> (371)
http://www.selleckchem.com/products/ski-ii.html

$$$$
MEK162 (ARRY-438162).cdx
csChFnd80/05071909292D

 27 29  0  0  0  0  0  0  0  0999 V2000
    2.1544    3.4927    0.0000 C   0  0  0  0  0  0  0  0  0  0  0  0
    2.1544    2.0927    0.0000 C   0  0  0  0  0  0  0  0  0  0  0  0
    3.3668    1.3927    0.0000 C   0  0  0  0  0  0  0  0  0  0  0  0
    4.5793    2.0927    0.0000 C   0  0  0  0  0  0  0  0  0  0  0  0
    4.5793    3.4927    0.0000 C   0  0  0  0  0  0  0  0  0  0  0  0
    3.3668    4.1927    0.0000 C   0  0  0  0  0  0  0  0  0  0  0  0
    0.8229    3.9253    0.0000 N   0  0  0  0  0  0  0  0  0  0  0  0
    0.0000    2.7927    0.0000 C   0  0  0  0  0  0  0  0  0  0  0  0
    0.8229    1.6601    0.0000 N   0  0  0  0  0  0  0  0  0  0  0  0
    0.3918    0.3332    0.0000 C   0  0  0  0  0  0  0  0  0  0  0  0
    3.3668    5.5879    0.0000 F   0  0  0  0  0  0  0  0  0  0  0  0
    5.7875    4.1903    0.0000 N   0  0  0  0  0  0  0  0  0  0  0  0
    5.7875    1.3951    0.0000 C   0  0  0  0  0  0  0  0  0  0  0  0
    6.9957    2.0927    0.0000 N   0  0  0  0  0  0  0  0  0  0  0  0
    5.7875    0.0000    0.0000 O   0  0  0  0  0  0  0  0  0  0  0  0
    8.2039    1.3951    0.0000 O   0  0  0  0  0  0  0  0  0  0  0  0
    9.4122    2.0927    0.0000 C   0  0  0  0  0  0  0  0  0  0  0  0
   10.6204    1.3951    0.0000 C   0  0  0  0  0  0  0  0  0  0  0  0
   11.8286    2.0927    0.0000 O   0  0  0  0  0  0  0  0  0  0  0  0
    5.7875    5.5903    0.0000 C   0  0  0  0  0  0  0  0  0  0  0  0
    6.9999    6.2903    0.0000 C   0  0  0  0  0  0  0  0  0  0  0  0
    6.9999    7.6903    0.0000 C   0  0  0  0  0  0  0  0  0  0  0  0
    5.7875    8.3903    0.0000 C   0  0  0  0  0  0  0  0  0  0  0  0
    4.5750    7.6903    0.0000 C   0  0  0  0  0  0  0  0  0  0  0  0
    4.5750    6.2903    0.0000 C   0  0  0  0  0  0  0  0  0  0  0  0
    8.2081    5.5927    0.0000 F   0  0  0  0  0  0  0  0  0  0  0  0
    5.7875    9.7854    0.0000 Br  0  0  0  0  0  0  0  0  0  0  0  0
  1  2  2  0  0  0  0
  2  3  1  0  0  0  0
  3  4  2  0  0  0  0
  4  5  1  0  0  0  0
  5  6  2  0  0  0  0
  6  1  1  0  0  0  0
  1  7  1  0  0  0  0
  7  8  2  0  0  0  0
  8  9  1  0  0  0  0
  9  2  1  0  0  0  0
  9 10  1  0  0  0  0
  6 11  1  0  0  0  0
  5 12  1  0  0  0  0
  4 13  1  0  0  0  0
 13 14  1  0  0  0  0
 13 15  2  0  0  0  0
 14 16  1  0  0  0  0
 16 17  1  0  0  0  0
 17 18  1  0  0  0  0
 18 19  1  0  0  0  0
 12 20  1  0  0  0  0
 20 21  2  0  0  0  0
 21 22  1  0  0  0  0
 22 23  2  0  0  0  0
 23 24  1  0  0  0  0
 24 25  2  0  0  0  0
 25 20  1  0  0  0  0
 21 26  1  0  0  0  0
 23 27  1  0  0  0  0
M  END
>  <Mol_ID> (372)
2514

>  <Formula> (372)
C17H15BrF2N4O3

>  <MolWeight> (372)
441.2268064

>  <Cat> (372)
S7007

>  <Name> (372)
Binimetinib (MEK162, ARRY-162, ARRY-438162)

>  <Synonyms> (372)
N/A

>  <Target> (372)
MEK

>  <Form> (372)
Free Base

>  <CAS> (372)
606143-89-9

>  <URL> (372)
http://www.selleckchem.com/products/mek162.html

$$$$
GSK2334470.cdx
csChFnd80/05071909292D

 34 38  0  0  0  0  0  0  0  0999 V2000
    8.4870    4.2000    0.0000 C   0  0  0  0  0  0  0  0  0  0  0  0
    8.4870    2.8000    0.0000 N   0  0  0  0  0  0  0  0  0  0  0  0
    9.6995    2.1000    0.0000 C   0  0  0  0  0  0  0  0  0  0  0  0
   10.9119    2.8000    0.0000 N   0  0  0  0  0  0  0  0  0  0  0  0
   10.9119    4.2000    0.0000 C   0  0  0  0  0  0  0  0  0  0  0  0
    9.6995    4.9000    0.0000 C   0  0  0  0  0  0  0  0  0  0  0  0
    7.2746    4.9000    0.0000 N   0  0  0  0  0  0  0  0  0  0  0  0
    9.6995    0.7000    0.0000 N   0  0  0  0  0  0  0  0  0  0  0  0
   10.9119    0.0000    0.0000 C   0  0  0  0  0  0  0  0  0  0  0  0
   12.1244    4.9000    0.0000 C   0  0  0  0  0  0  0  0  0  0  0  0
   13.3368    4.2000    0.0000 C   0  0  0  0  0  0  0  0  0  0  0  0
   14.5492    4.9000    0.0000 C   0  0  0  0  0  0  0  0  0  0  0  0
   14.5492    6.3000    0.0000 C   0  0  0  0  0  0  0  0  0  0  0  0
   13.3368    7.0000    0.0000 C   0  0  0  0  0  0  0  0  0  0  0  0
   12.1244    6.3000    0.0000 C   0  0  0  0  0  0  0  0  0  0  0  0
   15.8807    4.4674    0.0000 N   0  0  0  0  0  0  0  0  0  0  0  0
   16.7036    5.6000    0.0000 N   0  0  0  0  0  0  0  0  0  0  0  0
   15.8807    6.7326    0.0000 C   0  0  0  0  0  0  0  0  0  0  0  0
   16.3133    8.0641    0.0000 N   0  0  0  0  0  0  0  0  0  0  0  0
    7.2746    6.3000    0.0000 C   0  0  1  0  0  0  0  0  0  0  0  0
    6.0622    7.0000    0.0000 C   0  0  0  0  0  0  0  0  0  0  0  0
    4.8497    6.3000    0.0000 C   0  0  0  0  0  0  0  0  0  0  0  0
    4.8497    4.9000    0.0000 C   0  0  1  0  0  0  0  0  0  0  0  0
    6.0622    4.2000    0.0000 C   0  0  0  0  0  0  0  0  0  0  0  0
    3.6373    4.2000    0.0000 C   0  0  0  0  0  0  0  0  0  0  0  0
    2.4249    4.9000    0.0000 O   0  0  0  0  0  0  0  0  0  0  0  0
    3.6373    2.8000    0.0000 N   0  0  0  0  0  0  0  0  0  0  0  0
    2.4249    2.1000    0.0000 C   0  0  0  0  0  0  0  0  0  0  0  0
    1.2124    2.8000    0.0000 C   0  0  0  0  0  0  0  0  0  0  0  0
    0.0000    2.1000    0.0000 C   0  0  0  0  0  0  0  0  0  0  0  0
    0.0000    0.7000    0.0000 C   0  0  0  0  0  0  0  0  0  0  0  0
    1.2124    0.0000    0.0000 C   0  0  0  0  0  0  0  0  0  0  0  0
    2.4249    0.7000    0.0000 C   0  0  0  0  0  0  0  0  0  0  0  0
    8.4828    6.9976    0.0000 C   0  0  0  0  0  0  0  0  0  0  0  0
  1  2  2  0  0  0  0
  2  3  1  0  0  0  0
  3  4  2  0  0  0  0
  4  5  1  0  0  0  0
  5  6  2  0  0  0  0
  6  1  1  0  0  0  0
  1  7  1  0  0  0  0
  3  8  1  0  0  0  0
  8  9  1  0  0  0  0
  5 10  1  0  0  0  0
 10 11  2  0  0  0  0
 11 12  1  0  0  0  0
 12 13  2  0  0  0  0
 13 14  1  0  0  0  0
 14 15  2  0  0  0  0
 15 10  1  0  0  0  0
 12 16  1  0  0  0  0
 16 17  1  0  0  0  0
 17 18  2  0  0  0  0
 18 13  1  0  0  0  0
 18 19  1  0  0  0  0
  7 20  1  0  0  0  0
 20 21  1  0  0  0  0
 21 22  1  0  0  0  0
 22 23  1  0  0  0  0
 23 24  1  0  0  0  0
 24  7  1  0  0  0  0
 23 25  1  1  0  0  0
 25 26  2  0  0  0  0
 25 27  1  0  0  0  0
 27 28  1  0  0  0  0
 28 29  1  0  0  0  0
 29 30  1  0  0  0  0
 30 31  1  0  0  0  0
 31 32  1  0  0  0  0
 32 33  1  0  0  0  0
 33 28  1  0  0  0  0
 20 34  1  1  0  0  0
M  END
>  <Mol_ID> (373)
2517

>  <Formula> (373)
C25H34N8O

>  <MolWeight> (373)
462.59046

>  <Cat> (373)
S7087

>  <Name> (373)
GSK2334470

>  <Synonyms> (373)
N/A

>  <Target> (373)
PDK-1

>  <Form> (373)
Free Base

>  <CAS> (373)
1227911-45-6

>  <URL> (373)
http://www.selleckchem.com/products/gsk2334470.html

$$$$
TIC10.cdx
csChFnd80/05071909292D

 29 33  0  0  0  0  0  0  0  0999 V2000
    0.0000    6.3000    0.0000 C   0  0  0  0  0  0  0  0  0  0  0  0
    0.0000    4.9000    0.0000 C   0  0  0  0  0  0  0  0  0  0  0  0
    1.2124    4.2000    0.0000 C   0  0  0  0  0  0  0  0  0  0  0  0
    2.4249    4.9000    0.0000 C   0  0  0  0  0  0  0  0  0  0  0  0
    2.4249    6.3000    0.0000 C   0  0  0  0  0  0  0  0  0  0  0  0
    1.2124    7.0000    0.0000 C   0  0  0  0  0  0  0  0  0  0  0  0
    3.6373    7.0000    0.0000 C   0  0  0  0  0  0  0  0  0  0  0  0
    4.8497    6.3000    0.0000 N   0  0  0  0  0  0  0  0  0  0  0  0
    4.8497    4.9000    0.0000 C   0  0  0  0  0  0  0  0  0  0  0  0
    6.0622    4.2000    0.0000 C   0  0  0  0  0  0  0  0  0  0  0  0
    7.2746    4.9000    0.0000 C   0  0  0  0  0  0  0  0  0  0  0  0
    7.2746    6.3000    0.0000 C   0  0  0  0  0  0  0  0  0  0  0  0
    6.0622    7.0000    0.0000 C   0  0  0  0  0  0  0  0  0  0  0  0
    8.4870    4.2000    0.0000 N   0  0  0  0  0  0  0  0  0  0  0  0
    9.6995    4.9000    0.0000 C   0  0  0  0  0  0  0  0  0  0  0  0
    9.6995    6.3000    0.0000 N   0  0  0  0  0  0  0  0  0  0  0  0
    8.4870    7.0000    0.0000 C   0  0  0  0  0  0  0  0  0  0  0  0
   11.0310    4.4674    0.0000 N   0  0  0  0  0  0  0  0  0  0  0  0
   11.8539    5.6000    0.0000 C   0  0  0  0  0  0  0  0  0  0  0  0
   11.0310    6.7326    0.0000 C   0  0  0  0  0  0  0  0  0  0  0  0
    8.4870    2.8000    0.0000 C   0  0  0  0  0  0  0  0  0  0  0  0
    9.6995    2.1000    0.0000 C   0  0  0  0  0  0  0  0  0  0  0  0
    9.6995    0.7000    0.0000 C   0  0  0  0  0  0  0  0  0  0  0  0
   10.9119    0.0000    0.0000 C   0  0  0  0  0  0  0  0  0  0  0  0
   12.1244    0.7000    0.0000 C   0  0  0  0  0  0  0  0  0  0  0  0
   12.1244    2.1000    0.0000 C   0  0  0  0  0  0  0  0  0  0  0  0
   10.9119    2.8000    0.0000 C   0  0  0  0  0  0  0  0  0  0  0  0
    8.4870    0.0000    0.0000 C   0  0  0  0  0  0  0  0  0  0  0  0
    8.4870    8.4000    0.0000 O   0  0  0  0  0  0  0  0  0  0  0  0
  1  2  2  0  0  0  0
  2  3  1  0  0  0  0
  3  4  2  0  0  0  0
  4  5  1  0  0  0  0
  5  6  2  0  0  0  0
  6  1  1  0  0  0  0
  5  7  1  0  0  0  0
  7  8  1  0  0  0  0
  8  9  1  0  0  0  0
  9 10  1  0  0  0  0
 10 11  1  0  0  0  0
 11 12  2  0  0  0  0
 12 13  1  0  0  0  0
 13  8  1  0  0  0  0
 11 14  1  0  0  0  0
 14 15  1  0  0  0  0
 15 16  1  0  0  0  0
 16 17  1  0  0  0  0
 17 12  1  0  0  0  0
 15 18  2  0  0  0  0
 18 19  1  0  0  0  0
 19 20  1  0  0  0  0
 20 16  1  0  0  0  0
 14 21  1  0  0  0  0
 21 22  1  0  0  0  0
 22 23  2  0  0  0  0
 23 24  1  0  0  0  0
 24 25  2  0  0  0  0
 25 26  1  0  0  0  0
 26 27  2  0  0  0  0
 27 22  1  0  0  0  0
 23 28  1  0  0  0  0
 17 29  2  0  0  0  0
M  END
>  <Mol_ID> (374)
2519

>  <Formula> (374)
C24H26N4O

>  <MolWeight> (374)
386.48944

>  <Cat> (374)
S7127

>  <Name> (374)
TIC10 analogue

>  <Synonyms> (374)
TRAIL-inducing Compound 10

>  <Target> (374)
Akt

>  <Form> (374)
Free Base

>  <CAS> (374)
41276-02-2

>  <URL> (374)
http://www.selleckchem.com/products/tic10.html

$$$$
BIO (6-bromoindirubin-3-oxime).cdx
csChFnd80/05071909292D

 22 25  0  0  0  0  0  0  0  0999 V2000
    0.0000    3.1641    0.0000 C   0  0  0  0  0  0  0  0  0  0  0  0
    0.0000    1.7641    0.0000 C   0  0  0  0  0  0  0  0  0  0  0  0
    1.2124    1.0641    0.0000 C   0  0  0  0  0  0  0  0  0  0  0  0
    2.4249    1.7641    0.0000 C   0  0  0  0  0  0  0  0  0  0  0  0
    2.4249    3.1641    0.0000 C   0  0  0  0  0  0  0  0  0  0  0  0
    1.2124    3.8641    0.0000 C   0  0  0  0  0  0  0  0  0  0  0  0
    3.7564    1.3315    0.0000 N   0  0  0  0  0  0  0  0  0  0  0  0
    4.5793    2.4641    0.0000 C   0  0  0  0  0  0  0  0  0  0  0  0
    3.7564    3.5967    0.0000 C   0  0  0  0  0  0  0  0  0  0  0  0
    4.1890    4.9282    0.0000 N   0  0  0  0  0  0  0  0  0  0  0  0
    3.2522    5.9686    0.0000 O   0  0  0  0  0  0  0  0  0  0  0  0
    5.9793    2.4641    0.0000 C   0  0  0  0  0  0  0  0  0  0  0  0
    6.8021    1.3315    0.0000 C   0  0  0  0  0  0  0  0  0  0  0  0
    8.1336    1.7641    0.0000 N   0  0  0  0  0  0  0  0  0  0  0  0
    8.1336    3.1641    0.0000 C   0  0  0  0  0  0  0  0  0  0  0  0
    6.8021    3.5967    0.0000 C   0  0  0  0  0  0  0  0  0  0  0  0
    9.1740    4.1009    0.0000 C   0  0  0  0  0  0  0  0  0  0  0  0
    8.8830    5.4703    0.0000 C   0  0  0  0  0  0  0  0  0  0  0  0
    7.5515    5.9029    0.0000 C   0  0  0  0  0  0  0  0  0  0  0  0
    6.5111    4.9661    0.0000 C   0  0  0  0  0  0  0  0  0  0  0  0
    9.9234    6.4071    0.0000 Br  0  0  0  0  0  0  0  0  0  0  0  0
    6.3695    0.0000    0.0000 O   0  0  0  0  0  0  0  0  0  0  0  0
  1  2  2  0  0  0  0
  2  3  1  0  0  0  0
  3  4  2  0  0  0  0
  4  5  1  0  0  0  0
  5  6  2  0  0  0  0
  6  1  1  0  0  0  0
  4  7  1  0  0  0  0
  7  8  1  0  0  0  0
  8  9  1  0  0  0  0
  9  5  1  0  0  0  0
  9 10  2  0  0  0  0
 10 11  1  0  0  0  0
  8 12  2  0  0  0  0
 12 13  1  0  0  0  0
 13 14  1  0  0  0  0
 14 15  1  0  0  0  0
 15 16  2  0  0  0  0
 16 12  1  0  0  0  0
 15 17  1  0  0  0  0
 17 18  2  0  0  0  0
 18 19  1  0  0  0  0
 19 20  2  0  0  0  0
 20 16  1  0  0  0  0
 18 21  1  0  0  0  0
 13 22  2  0  0  0  0
M  END
>  <Mol_ID> (375)
2521

>  <Formula> (375)
C16H10BrN3O2

>  <MolWeight> (375)
356.1735

>  <Cat> (375)
S7198

>  <Name> (375)
BIO

>  <Synonyms> (375)
GSK-3 Inhibitor IX, 6-bromoindirubin-3-oxime

>  <Target> (375)
GSK-3

>  <Form> (375)
Free Base

>  <CAS> (375)
667463-62-9

>  <URL> (375)
http://www.selleckchem.com/products/bio.html

$$$$
RepSox (E-616452, SJN 2511).cdx
csChFnd80/05071909292D

 22 25  0  0  0  0  0  0  0  0999 V2000
    3.1033    3.5086    0.0000 N   0  0  0  0  0  0  0  0  0  0  0  0
    4.4880    3.3204    0.0000 C   0  0  0  0  0  0  0  0  0  0  0  0
    5.0192    2.0223    0.0000 C   0  0  0  0  0  0  0  0  0  0  0  0
    4.1611    0.9161    0.0000 C   0  0  0  0  0  0  0  0  0  0  0  0
    2.7741    1.1062    0.0000 C   0  0  0  0  0  0  0  0  0  0  0  0
    1.9160    0.0000    0.0000 N   0  0  0  0  0  0  0  0  0  0  0  0
    0.5289    0.1901    0.0000 C   0  0  0  0  0  0  0  0  0  0  0  0
    0.0000    1.4863    0.0000 C   0  0  0  0  0  0  0  0  0  0  0  0
    0.8581    2.5925    0.0000 C   0  0  0  0  0  0  0  0  0  0  0  0
    2.2452    2.4024    0.0000 C   0  0  0  0  0  0  0  0  0  0  0  0
    6.1128    6.5522    0.0000 N   0  0  0  0  0  0  0  0  0  0  0  0
    7.2190    5.6941    0.0000 N   0  0  0  0  0  0  0  0  0  0  0  0
    6.7447    4.3769    0.0000 C   0  0  0  0  0  0  0  0  0  0  0  0
    5.3477    4.4191    0.0000 C   0  0  0  0  0  0  0  0  0  0  0  0
    4.9549    5.7653    0.0000 C   0  0  0  0  0  0  0  0  0  0  0  0
    7.5289    3.2230    0.0000 C   0  0  0  0  0  0  0  0  0  0  0  0
    6.9195    1.9625    0.0000 C   0  0  0  0  0  0  0  0  0  0  0  0
    7.7064    0.8046    0.0000 C   0  0  0  0  0  0  0  0  0  0  0  0
    9.1026    0.9071    0.0000 C   0  0  0  0  0  0  0  0  0  0  0  0
    9.7120    2.1675    0.0000 C   0  0  0  0  0  0  0  0  0  0  0  0
    8.9251    3.3254    0.0000 N   0  0  0  0  0  0  0  0  0  0  0  0
   11.1034    2.2696    0.0000 C   0  0  0  0  0  0  0  0  0  0  0  0
  1  2  1  0  0  0  0
  2  3  2  0  0  0  0
  3  4  1  0  0  0  0
  4  5  2  0  0  0  0
  5  6  1  0  0  0  0
  6  7  2  0  0  0  0
  7  8  1  0  0  0  0
  8  9  2  0  0  0  0
  9 10  1  0  0  0  0
  1 10  2  0  0  0  0
  5 10  1  0  0  0  0
 11 12  1  0  0  0  0
 12 13  2  0  0  0  0
 13 14  1  0  0  0  0
 14 15  2  0  0  0  0
 11 15  1  0  0  0  0
 16 17  1  0  0  0  0
 17 18  2  0  0  0  0
 18 19  1  0  0  0  0
 19 20  2  0  0  0  0
 20 21  1  0  0  0  0
 16 21  2  0  0  0  0
 20 22  1  0  0  0  0
 13 16  1  0  0  0  0
  2 14  1  0  0  0  0
M  END
>  <Mol_ID> (376)
2525

>  <Formula> (376)
C17H13N5

>  <MolWeight> (376)
287.31862

>  <Cat> (376)
S7223

>  <Name> (376)
RepSox

>  <Synonyms> (376)
E-616452, SJN 2511

>  <Target> (376)
TGF-beta/Smad

>  <Form> (376)
Free Base

>  <CAS> (376)
446859-33-2

>  <URL> (376)
http://www.selleckchem.com/products/repsox.html

$$$$
AZD2858.cdx
csChFnd80/05071909292D

 32 35  0  0  0  0  0  0  0  0999 V2000
    9.6953    7.0000    0.0000 C   0  0  0  0  0  0  0  0  0  0  0  0
    9.6953    5.6000    0.0000 C   0  0  0  0  0  0  0  0  0  0  0  0
   10.9077    4.9000    0.0000 N   0  0  0  0  0  0  0  0  0  0  0  0
   12.1201    5.6000    0.0000 C   0  0  0  0  0  0  0  0  0  0  0  0
   12.1201    7.0000    0.0000 C   0  0  0  0  0  0  0  0  0  0  0  0
   10.9077    7.7000    0.0000 N   0  0  0  0  0  0  0  0  0  0  0  0
    8.4828    4.9000    0.0000 C   0  0  0  0  0  0  0  0  0  0  0  0
   13.3326    7.7000    0.0000 N   0  0  0  0  0  0  0  0  0  0  0  0
   13.3326    4.9000    0.0000 C   0  0  0  0  0  0  0  0  0  0  0  0
   13.3326    3.5000    0.0000 O   0  0  0  0  0  0  0  0  0  0  0  0
   14.5450    5.6000    0.0000 N   0  0  0  0  0  0  0  0  0  0  0  0
   15.7575    4.9000    0.0000 C   0  0  0  0  0  0  0  0  0  0  0  0
   15.7575    3.5000    0.0000 C   0  0  0  0  0  0  0  0  0  0  0  0
   16.9699    2.8000    0.0000 N   0  0  0  0  0  0  0  0  0  0  0  0
   18.1823    3.5000    0.0000 C   0  0  0  0  0  0  0  0  0  0  0  0
   18.1823    4.9000    0.0000 C   0  0  0  0  0  0  0  0  0  0  0  0
   16.9699    5.6000    0.0000 C   0  0  0  0  0  0  0  0  0  0  0  0
    7.2704    5.6000    0.0000 C   0  0  0  0  0  0  0  0  0  0  0  0
    6.0580    4.9000    0.0000 C   0  0  0  0  0  0  0  0  0  0  0  0
    6.0580    3.5000    0.0000 C   0  0  0  0  0  0  0  0  0  0  0  0
    7.2704    2.8000    0.0000 C   0  0  0  0  0  0  0  0  0  0  0  0
    8.4828    3.5000    0.0000 C   0  0  0  0  0  0  0  0  0  0  0  0
    4.8455    2.8000    0.0000 S   0  0  0  0  0  0  0  0  0  0  0  0
    4.1455    4.0124    0.0000 O   0  0  0  0  0  0  0  0  0  0  0  0
    5.5455    1.5876    0.0000 O   0  0  0  0  0  0  0  0  0  0  0  0
    3.6331    2.1000    0.0000 N   0  0  0  0  0  0  0  0  0  0  0  0
    2.4207    2.8000    0.0000 C   0  0  0  0  0  0  0  0  0  0  0  0
    1.2082    2.1000    0.0000 C   0  0  0  0  0  0  0  0  0  0  0  0
    1.2082    0.7000    0.0000 N   0  0  0  0  0  0  0  0  0  0  0  0
    2.4207    0.0000    0.0000 C   0  0  0  0  0  0  0  0  0  0  0  0
    3.6331    0.7000    0.0000 C   0  0  0  0  0  0  0  0  0  0  0  0
    0.0000    0.0024    0.0000 C   0  0  0  0  0  0  0  0  0  0  0  0
  1  2  2  0  0  0  0
  2  3  1  0  0  0  0
  3  4  2  0  0  0  0
  4  5  1  0  0  0  0
  5  6  2  0  0  0  0
  6  1  1  0  0  0  0
  2  7  1  0  0  0  0
  5  8  1  0  0  0  0
  4  9  1  0  0  0  0
  9 10  2  0  0  0  0
  9 11  1  0  0  0  0
 11 12  1  0  0  0  0
 12 13  2  0  0  0  0
 13 14  1  0  0  0  0
 14 15  2  0  0  0  0
 15 16  1  0  0  0  0
 16 17  2  0  0  0  0
 17 12  1  0  0  0  0
  7 18  2  0  0  0  0
 18 19  1  0  0  0  0
 19 20  2  0  0  0  0
 20 21  1  0  0  0  0
 21 22  2  0  0  0  0
 22  7  1  0  0  0  0
 20 23  1  0  0  0  0
 23 24  2  0  0  0  0
 23 25  2  0  0  0  0
 23 26  1  0  0  0  0
 26 27  1  0  0  0  0
 27 28  1  0  0  0  0
 28 29  1  0  0  0  0
 29 30  1  0  0  0  0
 30 31  1  0  0  0  0
 31 26  1  0  0  0  0
 29 32  1  0  0  0  0
M  END
>  <Mol_ID> (377)
2528

>  <Formula> (377)
C21H23N7O3S

>  <MolWeight> (377)
453.51742

>  <Cat> (377)
S7253

>  <Name> (377)
AZD2858

>  <Synonyms> (377)
N/A

>  <Target> (377)
GSK-3

>  <Form> (377)
Free Base

>  <CAS> (377)
486424-20-8

>  <URL> (377)
http://www.selleckchem.com/products/azd2858.html

$$$$
ZM39923 HCl.cdx
csChFnd80/05071909292D

 26 27  0  0  0  0  0  0  0  0999 V2000
    7.2746    4.9000    0.0000 C   0  0  0  0  0  0  0  0  0  0  0  0
    6.0622    4.2000    0.0000 C   0  0  0  0  0  0  0  0  0  0  0  0
    4.8497    4.9000    0.0000 C   0  0  0  0  0  0  0  0  0  0  0  0
    7.2746    6.3000    0.0000 O   0  0  0  0  0  0  0  0  0  0  0  0
    8.4870    2.8000    0.0000 C   0  0  0  0  0  0  0  0  0  0  0  0
    8.4870    4.2000    0.0000 C   0  0  0  0  0  0  0  0  0  0  0  0
    9.6995    4.9000    0.0000 C   0  0  0  0  0  0  0  0  0  0  0  0
   10.9119    4.2000    0.0000 C   0  0  0  0  0  0  0  0  0  0  0  0
   10.9119    2.8000    0.0000 C   0  0  0  0  0  0  0  0  0  0  0  0
   12.1244    2.1000    0.0000 C   0  0  0  0  0  0  0  0  0  0  0  0
   12.1244    0.7000    0.0000 C   0  0  0  0  0  0  0  0  0  0  0  0
   10.9119    0.0000    0.0000 C   0  0  0  0  0  0  0  0  0  0  0  0
    9.6995    0.7000    0.0000 C   0  0  0  0  0  0  0  0  0  0  0  0
    9.6995    2.1000    0.0000 C   0  0  0  0  0  0  0  0  0  0  0  0
    3.6373    4.2000    0.0000 N   0  0  0  0  0  0  0  0  0  0  0  0
    2.4249    4.9000    0.0000 C   0  0  0  0  0  0  0  0  0  0  0  0
    2.4249    6.3000    0.0000 C   0  0  0  0  0  0  0  0  0  0  0  0
    1.2124    4.2000    0.0000 C   0  0  0  0  0  0  0  0  0  0  0  0
    3.6373    2.8000    0.0000 C   0  0  0  0  0  0  0  0  0  0  0  0
    2.4249    2.1000    0.0000 C   0  0  0  0  0  0  0  0  0  0  0  0
    2.4249    0.7000    0.0000 C   0  0  0  0  0  0  0  0  0  0  0  0
    1.2124    0.0000    0.0000 C   0  0  0  0  0  0  0  0  0  0  0  0
    0.0000    0.7000    0.0000 C   0  0  0  0  0  0  0  0  0  0  0  0
    0.0000    2.1000    0.0000 C   0  0  0  0  0  0  0  0  0  0  0  0
    1.2124    2.8000    0.0000 C   0  0  0  0  0  0  0  0  0  0  0  0
    5.7377    0.0634    0.0000 Cl  0  0  0  0  0  0  0  0  0  0  0  0
  1  2  1  0  0  0  0
  2  3  1  0  0  0  0
  1  4  2  0  0  0  0
  5  6  1  0  0  0  0
  6  7  2  0  0  0  0
  7  8  1  0  0  0  0
  8  9  2  0  0  0  0
  9 10  1  0  0  0  0
 10 11  2  0  0  0  0
 11 12  1  0  0  0  0
 12 13  2  0  0  0  0
 13 14  1  0  0  0  0
  5 14  2  0  0  0  0
  9 14  1  0  0  0  0
  1  6  1  0  0  0  0
 16 17  1  0  0  0  0
 16 18  1  0  0  0  0
 15 16  1  0  0  0  0
 19 20  1  0  0  0  0
 20 21  1  0  0  0  0
 21 22  2  0  0  0  0
 22 23  1  0  0  0  0
 23 24  2  0  0  0  0
 24 25  1  0  0  0  0
 20 25  2  0  0  0  0
 15 19  1  0  0  0  0
  3 15  1  0  0  0  0
M  END
>  <Mol_ID> (378)
2530

>  <Formula> (378)
C23H26ClNO

>  <MolWeight> (378)
367.91164

>  <Cat> (378)
S8004

>  <Name> (378)
ZM 39923 HCl

>  <Synonyms> (378)
N/A

>  <Target> (378)
JAK

>  <Form> (378)
HCl

>  <CAS> (378)
1021868-92-7

>  <URL> (378)
http://www.selleckchem.com/products/zm-39923-hcl.html

$$$$
Ro 31-8220 mesylate.cdx
csChFnd80/05071909292D

 38 41  0  0  0  0  0  0  0  0999 V2000
   10.3410    6.1078    0.0000 C   0  0  0  0  0  0  0  0  0  0  0  0
    8.9738    6.4088    0.0000 C   0  0  0  0  0  0  0  0  0  0  0  0
    8.5518    7.7403    0.0000 C   0  0  0  0  0  0  0  0  0  0  0  0
    9.4906    8.7679    0.0000 C   0  0  0  0  0  0  0  0  0  0  0  0
   10.8477    8.4691    0.0000 C   0  0  0  0  0  0  0  0  0  0  0  0
   11.2671    7.1457    0.0000 C   0  0  0  0  0  0  0  0  0  0  0  0
    7.8380    5.5844    0.0000 N   0  0  0  0  0  0  0  0  0  0  0  0
    6.7077    6.4095    0.0000 C   0  0  0  0  0  0  0  0  0  0  0  0
    7.1569    7.7503    0.0000 C   0  0  0  0  0  0  0  0  0  0  0  0
    6.3432    8.8896    0.0000 C   0  0  0  0  0  0  0  0  0  0  0  0
    6.8062   10.2329    0.0000 C   0  0  0  0  0  0  0  0  0  0  0  0
    7.8380    4.1844    0.0000 C   0  0  0  0  0  0  0  0  0  0  0  0
    9.0499    3.4847    0.0000 C   0  0  0  0  0  0  0  0  0  0  0  0
    9.0499    2.0844    0.0000 C   0  0  0  0  0  0  0  0  0  0  0  0
   10.2622    1.3845    0.0000 S   0  0  0  0  0  0  0  0  0  0  0  0
    8.1408   10.6558    0.0000 O   0  0  0  0  0  0  0  0  0  0  0  0
    5.6652   11.0566    0.0000 N   0  0  0  0  0  0  0  0  0  0  0  0
    0.4244    8.4910    0.0000 C   0  0  0  0  0  0  0  0  0  0  0  0
    0.0000    7.1568    0.0000 C   0  0  0  0  0  0  0  0  0  0  0  0
    0.9431    6.1222    0.0000 C   0  0  0  0  0  0  0  0  0  0  0  0
    2.3107    6.4217    0.0000 C   0  0  0  0  0  0  0  0  0  0  0  0
    2.7353    7.7490    0.0000 C   0  0  0  0  0  0  0  0  0  0  0  0
    1.7920    8.7904    0.0000 C   0  0  0  0  0  0  0  0  0  0  0  0
    3.4517    5.6058    0.0000 N   0  0  0  0  0  0  0  0  0  0  0  0
    4.5882    6.4395    0.0000 C   0  0  0  0  0  0  0  0  0  0  0  0
    4.1578    7.7528    0.0000 C   0  0  0  0  0  0  0  0  0  0  0  0
    4.9778    8.8876    0.0000 C   0  0  0  0  0  0  0  0  0  0  0  0
    4.5331   10.2390    0.0000 C   0  0  0  0  0  0  0  0  0  0  0  0
    3.2014   10.6711    0.0000 O   0  0  0  0  0  0  0  0  0  0  0  0
    3.4517    4.2058    0.0000 C   0  0  0  0  0  0  0  0  0  0  0  0
   11.4746    2.0845    0.0000 C   0  0  0  0  0  0  0  0  0  0  0  0
   11.4746    3.4844    0.0000 N   0  0  0  0  0  0  0  0  0  0  0  0
   12.6871    1.3844    0.0000 N   0  0  0  0  0  0  0  0  0  0  0  0
    3.0533    0.0000    0.0000 C   0  0  0  0  0  0  0  0  0  0  0  0
    3.0533    1.4000    0.0000 S   0  0  0  0  0  0  0  0  0  0  0  0
    1.6533    1.4000    0.0000 O   0  0  0  0  0  0  0  0  0  0  0  0
    4.4533    1.4000    0.0000 O   0  0  0  0  0  0  0  0  0  0  0  0
    3.0533    2.8000    0.0000 O   0  0  0  0  0  0  0  0  0  0  0  0
  1  2  2  0  0  0  0
  2  3  1  0  0  0  0
  3  4  2  0  0  0  0
  4  5  1  0  0  0  0
  5  6  2  0  0  0  0
  6  1  1  0  0  0  0
  2  7  1  0  0  0  0
  7  8  1  0  0  0  0
  8  9  2  0  0  0  0
  9  3  1  0  0  0  0
  9 10  1  0  0  0  0
 10 11  1  0  0  0  0
  7 12  1  0  0  0  0
 12 13  1  0  0  0  0
 13 14  1  0  0  0  0
 14 15  1  0  0  0  0
 11 16  2  0  0  0  0
 11 17  1  0  0  0  0
 18 19  2  0  0  0  0
 19 20  1  0  0  0  0
 20 21  2  0  0  0  0
 21 22  1  0  0  0  0
 22 23  2  0  0  0  0
 23 18  1  0  0  0  0
 21 24  1  0  0  0  0
 24 25  1  0  0  0  0
 25 26  2  0  0  0  0
 26 22  1  0  0  0  0
 26 27  1  0  0  0  0
 27 28  1  0  0  0  0
 28 29  2  0  0  0  0
 17 28  1  0  0  0  0
 10 27  2  0  0  0  0
 24 30  1  0  0  0  0
 15 31  1  0  0  0  0
 31 32  2  0  0  0  0
 31 33  1  0  0  0  0
 34 35  1  0  0  0  0
 35 36  2  0  0  0  0
 35 37  2  0  0  0  0
 35 38  1  0  0  0  0
M  END
>  <Mol_ID> (379)
2536

>  <Formula> (379)
C26H27N5O5S2

>  <MolWeight> (379)
553.65308

>  <Cat> (379)
S7207

>  <Name> (379)
Ro 31-8220 Mesylate

>  <Synonyms> (379)
Bisindolylmaleimide IX Mesylate

>  <Target> (379)
PKC

>  <Form> (379)
Mesylate

>  <CAS> (379)
138489-18-6

>  <URL> (379)
http://www.selleckchem.com/products/ro-31-8220-mesylate.html

$$$$
Bardoxolone Methyl.cdx
csChFnd80/05071909292D

 40 44  0  0  0  0  0  0  0  0999 V2000
    9.7022    7.3612    0.0000 C   0  0  0  0  0  0  0  0  0  0  0  0
   10.9157    8.0594    0.0000 C   0  0  0  0  0  0  0  0  0  0  0  0
   12.1271    7.3576    0.0000 C   0  0  0  0  0  0  0  0  0  0  0  0
   12.1251    5.9576    0.0000 C   0  0  0  0  0  0  0  0  0  0  0  0
   10.9136    5.2628    0.0000 C   0  0  2  0  0  0  0  0  0  0  0  0
   10.9095    3.8595    0.0000 C   0  0  0  0  0  0  0  0  0  0  0  0
    9.6960    3.1612    0.0000 C   0  0  0  0  0  0  0  0  0  0  0  0
    8.4831    3.8629    0.0000 C   0  0  1  0  0  0  0  0  0  0  0  0
    7.2704    3.1633    0.0000 C   0  0  2  0  0  0  0  0  0  0  0  0
    7.2691    1.7648    0.0000 C   0  0  0  0  0  0  0  0  0  0  0  0
    6.0556    1.0666    0.0000 C   0  0  0  0  0  0  0  0  0  0  0  0
    4.8443    1.7683    0.0000 C   0  0  1  0  0  0  0  0  0  0  0  0
    3.6308    1.0701    0.0000 C   0  0  0  0  0  0  0  0  0  0  0  0
    2.4189    1.7728    0.0000 C   0  0  0  0  0  0  0  0  0  0  0  0
    2.4164    3.1631    0.0000 C   0  0  0  0  0  0  0  0  0  0  0  0
    3.6350    3.8702    0.0000 C   0  0  0  0  0  0  0  0  0  0  0  0
    4.8475    3.1684    0.0000 C   0  0  2  0  0  0  0  0  0  0  0  0
    6.0598    3.8665    0.0000 C   0  0  0  0  0  0  0  0  0  0  0  0
    6.0618    5.2666    0.0000 C   0  0  0  0  0  0  0  0  0  0  0  0
    7.2763    5.9648    0.0000 C   0  0  0  0  0  0  0  0  0  0  0  0
    8.4869    5.2630    0.0000 C   0  0  2  0  0  0  0  0  0  0  0  0
    9.7007    5.9621    0.0000 C   0  0  2  0  0  0  0  0  0  0  0  0
   12.1310    4.5600    0.0000 C   0  0  0  0  0  0  0  0  0  0  0  0
   12.1310    3.1650    0.0000 O   0  0  0  0  0  0  0  0  0  0  0  0
   13.3302    5.2523    0.0000 O   0  0  0  0  0  0  0  0  0  0  0  0
    7.2763    7.3599    0.0000 O   0  0  0  0  0  0  0  0  0  0  0  0
    1.2106    1.0752    0.0000 O   0  0  0  0  0  0  0  0  0  0  0  0
    4.8475    4.5635    0.0000 C   0  0  0  0  0  0  0  0  0  0  0  0
    2.7325    0.0027    0.0000 C   0  0  0  0  0  0  0  0  0  0  0  0
    4.5260    0.0000    0.0000 C   0  0  0  0  0  0  0  0  0  0  0  0
   11.8140    9.1268    0.0000 C   0  0  0  0  0  0  0  0  0  0  0  0
   10.0205    9.1295    0.0000 C   0  0  0  0  0  0  0  0  0  0  0  0
    1.2082    3.8607    0.0000 C   0  0  0  0  0  0  0  0  0  0  0  0
    0.0000    4.5582    0.0000 N   0  0  0  0  0  0  0  0  0  0  0  0
   13.3302    6.6735    0.0000 C   0  0  0  0  0  0  0  0  0  0  0  0
    7.2704    4.5633    0.0000 C   0  0  0  0  0  0  0  0  0  0  0  0
    8.4831    2.4629    0.0000 C   0  0  0  0  0  0  0  0  0  0  0  0
    9.7007    4.5621    0.0000 H   0  0  0  0  0  0  0  0  0  0  0  0
    8.4869    6.6630    0.0000 H   0  0  0  0  0  0  0  0  0  0  0  0
    5.2066    0.4160    0.0000 H   0  0  0  0  0  0  0  0  0  0  0  0
  1  2  1  0  0  0  0
  2  3  1  0  0  0  0
  3  4  1  0  0  0  0
  4  5  1  0  0  0  0
  5  6  1  0  0  0  0
  6  7  1  0  0  0  0
  7  8  1  0  0  0  0
  8  9  1  0  0  0  0
  9 10  1  0  0  0  0
 10 11  1  0  0  0  0
 11 12  1  0  0  0  0
 12 13  1  0  0  0  0
 13 14  1  0  0  0  0
 14 15  1  0  0  0  0
 15 16  2  0  0  0  0
 16 17  1  0  0  0  0
 12 17  1  0  0  0  0
 17 18  1  0  0  0  0
  9 18  1  0  0  0  0
 18 19  2  0  0  0  0
 19 20  1  0  0  0  0
 20 21  1  0  0  0  0
  8 21  1  0  0  0  0
 21 22  1  0  0  0  0
  5 22  1  0  0  0  0
  1 22  1  0  0  0  0
 23 24  2  0  0  0  0
 23 25  1  0  0  0  0
  5 23  1  1  0  0  0
 20 26  2  0  0  0  0
 14 27  2  0  0  0  0
 17 28  1  1  0  0  0
 13 29  1  0  0  0  0
 13 30  1  0  0  0  0
  2 31  1  0  0  0  0
  2 32  1  0  0  0  0
 33 34  3  0  0  0  0
 15 33  1  0  0  0  0
 25 35  1  0  0  0  0
  9 36  1  1  0  0  0
  8 37  1  6  0  0  0
 22 38  1  1  0  0  0
 21 39  1  1  0  0  0
 12 40  1  6  0  0  0
M  END
>  <Mol_ID> (380)
2538

>  <Formula> (380)
C32H43NO4

>  <MolWeight> (380)
505.68812

>  <Cat> (380)
S8078

>  <Name> (380)
Bardoxolone Methyl

>  <Synonyms> (380)
RTA 402, TP-155, NSC 713200, CDDO Methyl Ester

>  <Target> (380)
IB/IKK

>  <Form> (380)
Free Base

>  <CAS> (380)
218600-53-4

>  <URL> (380)
http://www.selleckchem.com/products/bardoxolone-methyl.html

$$$$
CZC24832.cdx
csChFnd80/05071909292D

 25 27  0  0  0  0  0  0  0  0999 V2000
    3.6373    2.1000    0.0000 C   0  0  0  0  0  0  0  0  0  0  0  0
    3.6373    0.7000    0.0000 C   0  0  0  0  0  0  0  0  0  0  0  0
    4.8497    0.0000    0.0000 N   0  0  0  0  0  0  0  0  0  0  0  0
    6.0622    0.7000    0.0000 C   0  0  0  0  0  0  0  0  0  0  0  0
    6.0622    2.1000    0.0000 C   0  0  0  0  0  0  0  0  0  0  0  0
    4.8497    2.8000    0.0000 C   0  0  0  0  0  0  0  0  0  0  0  0
    2.4249    2.8000    0.0000 S   0  0  0  0  0  0  0  0  0  0  0  0
    7.2746    2.8000    0.0000 C   0  0  0  0  0  0  0  0  0  0  0  0
    3.1249    4.0124    0.0000 O   0  0  0  0  0  0  0  0  0  0  0  0
    1.7249    1.5876    0.0000 O   0  0  0  0  0  0  0  0  0  0  0  0
    1.2124    3.5000    0.0000 N   0  0  0  0  0  0  0  0  0  0  0  0
    1.2124    4.9000    0.0000 C   0  0  0  0  0  0  0  0  0  0  0  0
    0.0000    5.6000    0.0000 C   0  0  0  0  0  0  0  0  0  0  0  0
    2.4249    5.6000    0.0000 C   0  0  0  0  0  0  0  0  0  0  0  0
    1.2124    6.3000    0.0000 C   0  0  0  0  0  0  0  0  0  0  0  0
    8.4870    2.1000    0.0000 C   0  0  0  0  0  0  0  0  0  0  0  0
    9.6995    2.8000    0.0000 N   0  0  0  0  0  0  0  0  0  0  0  0
    9.6995    4.2000    0.0000 C   0  0  0  0  0  0  0  0  0  0  0  0
    8.4870    4.9000    0.0000 C   0  0  0  0  0  0  0  0  0  0  0  0
    7.2746    4.2000    0.0000 C   0  0  0  0  0  0  0  0  0  0  0  0
   11.0310    2.3674    0.0000 N   0  0  0  0  0  0  0  0  0  0  0  0
   11.8539    3.5000    0.0000 C   0  0  0  0  0  0  0  0  0  0  0  0
   11.0310    4.6326    0.0000 N   0  0  0  0  0  0  0  0  0  0  0  0
    8.4870    6.3000    0.0000 F   0  0  0  0  0  0  0  0  0  0  0  0
   13.2539    3.5000    0.0000 N   0  0  0  0  0  0  0  0  0  0  0  0
  1  2  2  0  0  0  0
  2  3  1  0  0  0  0
  3  4  2  0  0  0  0
  4  5  1  0  0  0  0
  5  6  2  0  0  0  0
  6  1  1  0  0  0  0
  1  7  1  0  0  0  0
  5  8  1  0  0  0  0
  7  9  2  0  0  0  0
  7 10  2  0  0  0  0
  7 11  1  0  0  0  0
 11 12  1  0  0  0  0
 12 13  1  0  0  0  0
 12 14  1  0  0  0  0
 12 15  1  0  0  0  0
 16 17  1  0  0  0  0
 18 19  1  0  0  0  0
 20  8  1  0  0  0  0
 17 21  1  0  0  0  0
 21 22  2  0  0  0  0
 22 23  1  0  0  0  0
 23 18  2  0  0  0  0
 20 19  2  0  0  0  0
  8 16  2  0  0  0  0
 18 17  1  0  0  0  0
 19 24  1  0  0  0  0
 22 25  1  0  0  0  0
M  END
>  <Mol_ID> (381)
2539

>  <Formula> (381)
C15H17FN6O2S

>  <MolWeight> (381)
364.3978832

>  <Cat> (381)
S7018

>  <Name> (381)
CZC24832

>  <Synonyms> (381)
N/A

>  <Target> (381)
Product Categories
PI3K/Akt/mTORPI3K
PI3K

>  <Form> (381)
Free Base

>  <CAS> (381)
1159824-67-5

>  <URL> (381)
http://www.selleckchem.com/products/czc24832.html

$$$$
ETP-46464.cdx
csChFnd80/05071909292D

 36 41  0  0  0  0  0  0  0  0999 V2000
    0.0000    8.4000    0.0000 C   0  0  0  0  0  0  0  0  0  0  0  0
    0.0000    7.0000    0.0000 C   0  0  0  0  0  0  0  0  0  0  0  0
    1.2124    6.3000    0.0000 C   0  0  0  0  0  0  0  0  0  0  0  0
    2.4249    7.0000    0.0000 C   0  0  0  0  0  0  0  0  0  0  0  0
    2.4249    8.4000    0.0000 C   0  0  0  0  0  0  0  0  0  0  0  0
    1.2124    9.1000    0.0000 C   0  0  0  0  0  0  0  0  0  0  0  0
    3.6373    9.1000    0.0000 C   0  0  0  0  0  0  0  0  0  0  0  0
    3.6373   10.5000    0.0000 C   0  0  0  0  0  0  0  0  0  0  0  0
    2.4249   11.2000    0.0000 C   0  0  0  0  0  0  0  0  0  0  0  0
    1.2124   10.5000    0.0000 N   0  0  0  0  0  0  0  0  0  0  0  0
    4.8497    8.4000    0.0000 N   0  0  0  0  0  0  0  0  0  0  0  0
    6.0622    9.1000    0.0000 C   0  0  0  0  0  0  0  0  0  0  0  0
    6.0622   10.5000    0.0000 O   0  0  0  0  0  0  0  0  0  0  0  0
    4.8497   11.2000    0.0000 C   0  0  0  0  0  0  0  0  0  0  0  0
    1.2124    4.9000    0.0000 C   0  0  0  0  0  0  0  0  0  0  0  0
    0.0000    4.2000    0.0000 C   0  0  0  0  0  0  0  0  0  0  0  0
    0.0000    2.8000    0.0000 N   0  0  0  0  0  0  0  0  0  0  0  0
    1.2124    2.1000    0.0000 C   0  0  0  0  0  0  0  0  0  0  0  0
    2.4249    2.8000    0.0000 C   0  0  0  0  0  0  0  0  0  0  0  0
    2.4249    4.2000    0.0000 C   0  0  0  0  0  0  0  0  0  0  0  0
    1.2124    0.7000    0.0000 C   0  0  0  0  0  0  0  0  0  0  0  0
    2.4249    0.0000    0.0000 C   0  0  0  0  0  0  0  0  0  0  0  0
    3.6373    0.7000    0.0000 C   0  0  0  0  0  0  0  0  0  0  0  0
    3.6373    2.1000    0.0000 C   0  0  0  0  0  0  0  0  0  0  0  0
    4.8497    7.0000    0.0000 C   0  0  0  0  0  0  0  0  0  0  0  0
    3.6373    6.3000    0.0000 C   0  0  0  0  0  0  0  0  0  0  0  0
    3.6373    4.9000    0.0000 C   0  0  0  0  0  0  0  0  0  0  0  0
    4.8497    4.2000    0.0000 C   0  0  0  0  0  0  0  0  0  0  0  0
    6.0622    4.9000    0.0000 C   0  0  0  0  0  0  0  0  0  0  0  0
    6.0622    6.3000    0.0000 C   0  0  0  0  0  0  0  0  0  0  0  0
    4.8497    2.8000    0.0000 C   0  0  0  0  0  0  0  0  0  0  0  0
    6.0622    2.1000    0.0000 C   0  0  0  0  0  0  0  0  0  0  0  0
    3.4974    3.1623    0.0000 C   0  0  0  0  0  0  0  0  0  0  0  0
    4.4874    1.4477    0.0000 C   0  0  0  0  0  0  0  0  0  0  0  0
    7.2732    1.4000    0.0000 N   0  0  0  0  0  0  0  0  0  0  0  0
    7.2746    8.4000    0.0000 O   0  0  0  0  0  0  0  0  0  0  0  0
  1  2  2  0  0  0  0
  2  3  1  0  0  0  0
  3  4  2  0  0  0  0
  4  5  1  0  0  0  0
  5  6  2  0  0  0  0
  6  1  1  0  0  0  0
  5  7  1  0  0  0  0
  7  8  2  0  0  0  0
  8  9  1  0  0  0  0
  9 10  2  0  0  0  0
 10  6  1  0  0  0  0
  7 11  1  0  0  0  0
 11 12  1  0  0  0  0
 12 13  1  0  0  0  0
 13 14  1  0  0  0  0
 14  8  1  0  0  0  0
  3 15  1  0  0  0  0
 15 16  2  0  0  0  0
 16 17  1  0  0  0  0
 17 18  2  0  0  0  0
 18 19  1  0  0  0  0
 19 20  2  0  0  0  0
 20 15  1  0  0  0  0
 18 21  1  0  0  0  0
 21 22  2  0  0  0  0
 22 23  1  0  0  0  0
 23 24  2  0  0  0  0
 24 19  1  0  0  0  0
 11 25  1  0  0  0  0
 25 26  2  0  0  0  0
 26 27  1  0  0  0  0
 27 28  2  0  0  0  0
 28 29  1  0  0  0  0
 29 30  2  0  0  0  0
 30 25  1  0  0  0  0
 28 31  1  0  0  0  0
 31 32  1  0  0  0  0
 31 33  1  0  0  0  0
 31 34  1  0  0  0  0
 32 35  3  0  0  0  0
 12 36  2  0  0  0  0
M  END
>  <Mol_ID> (382)
2542

>  <Formula> (382)
C30H22N4O2

>  <MolWeight> (382)
470.52128

>  <Cat> (382)
S8050

>  <Name> (382)
ETP-46464

>  <Synonyms> (382)
N/A

>  <Target> (382)
mTOR

>  <Form> (382)
Free Base

>  <CAS> (382)
1345675-02-6

>  <URL> (382)
http://www.selleckchem.com/products/etp-46464.html

$$$$
XL388.cdx
csChFnd80/05071909292D

 32 35  0  0  0  0  0  0  0  0999 V2000
    1.2082    4.3705    0.0000 C   0  0  0  0  0  0  0  0  0  0  0  0
    1.2082    2.9705    0.0000 N   0  0  0  0  0  0  0  0  0  0  0  0
    2.4207    2.2705    0.0000 C   0  0  0  0  0  0  0  0  0  0  0  0
    3.6331    2.9705    0.0000 C   0  0  0  0  0  0  0  0  0  0  0  0
    3.6331    4.3705    0.0000 C   0  0  0  0  0  0  0  0  0  0  0  0
    2.4207    5.0705    0.0000 C   0  0  0  0  0  0  0  0  0  0  0  0
    0.0000    5.0680    0.0000 N   0  0  0  0  0  0  0  0  0  0  0  0
    4.8413    2.2729    0.0000 C   0  0  0  0  0  0  0  0  0  0  0  0
    4.8413    0.8729    0.0000 C   0  0  0  0  0  0  0  0  0  0  0  0
    6.0538    0.1729    0.0000 C   0  0  0  0  0  0  0  0  0  0  0  0
    7.2662    0.8729    0.0000 C   0  0  0  0  0  0  0  0  0  0  0  0
    7.2662    2.2729    0.0000 C   0  0  0  0  0  0  0  0  0  0  0  0
    6.0538    2.9729    0.0000 C   0  0  0  0  0  0  0  0  0  0  0  0
    8.3608    0.0000    0.0000 O   0  0  0  0  0  0  0  0  0  0  0  0
    9.7257    0.3115    0.0000 C   0  0  0  0  0  0  0  0  0  0  0  0
   10.3331    1.5729    0.0000 C   0  0  0  0  0  0  0  0  0  0  0  0
    9.7257    2.8342    0.0000 N   0  0  0  0  0  0  0  0  0  0  0  0
    8.3608    3.1458    0.0000 C   0  0  0  0  0  0  0  0  0  0  0  0
   10.5955    3.9250    0.0000 C   0  0  0  0  0  0  0  0  0  0  0  0
   10.0858    5.2237    0.0000 O   0  0  0  0  0  0  0  0  0  0  0  0
   11.9751    3.7171    0.0000 C   0  0  0  0  0  0  0  0  0  0  0  0
   12.4866    2.4138    0.0000 C   0  0  0  0  0  0  0  0  0  0  0  0
   13.8709    2.2052    0.0000 C   0  0  0  0  0  0  0  0  0  0  0  0
   14.7438    3.2998    0.0000 C   0  0  0  0  0  0  0  0  0  0  0  0
   14.2323    4.6030    0.0000 C   0  0  0  0  0  0  0  0  0  0  0  0
   12.8480    4.8116    0.0000 C   0  0  0  0  0  0  0  0  0  0  0  0
   12.3383    6.1103    0.0000 C   0  0  0  0  0  0  0  0  0  0  0  0
   15.1022    5.6937    0.0000 F   0  0  0  0  0  0  0  0  0  0  0  0
   16.1234    3.0918    0.0000 S   0  0  0  0  0  0  0  0  0  0  0  0
   17.0554    4.1299    0.0000 C   0  0  0  0  0  0  0  0  0  0  0  0
   15.4234    1.8794    0.0000 O   0  0  0  0  0  0  0  0  0  0  0  0
   16.8234    1.8794    0.0000 O   0  0  0  0  0  0  0  0  0  0  0  0
  1  2  2  0  0  0  0
  2  3  1  0  0  0  0
  3  4  2  0  0  0  0
  4  5  1  0  0  0  0
  5  6  2  0  0  0  0
  6  1  1  0  0  0  0
  1  7  1  0  0  0  0
  4  8  1  0  0  0  0
  8  9  2  0  0  0  0
  9 10  1  0  0  0  0
 10 11  2  0  0  0  0
 11 12  1  0  0  0  0
 12 13  2  0  0  0  0
 13  8  1  0  0  0  0
 11 14  1  0  0  0  0
 14 15  1  0  0  0  0
 15 16  1  0  0  0  0
 16 17  1  0  0  0  0
 17 18  1  0  0  0  0
 18 12  1  0  0  0  0
 17 19  1  0  0  0  0
 19 20  2  0  0  0  0
 19 21  1  0  0  0  0
 21 22  2  0  0  0  0
 22 23  1  0  0  0  0
 23 24  2  0  0  0  0
 24 25  1  0  0  0  0
 25 26  2  0  0  0  0
 26 21  1  0  0  0  0
 26 27  1  0  0  0  0
 25 28  1  0  0  0  0
 24 29  1  0  0  0  0
 29 30  1  0  0  0  0
 29 31  2  0  0  0  0
 29 32  2  0  0  0  0
M  END
>  <Mol_ID> (383)
2544

>  <Formula> (383)
C23H22FN3O4S

>  <MolWeight> (383)
455.5018832

>  <Cat> (383)
S7035

>  <Name> (383)
XL388

>  <Synonyms> (383)
N/A

>  <Target> (383)
mTOR

>  <Form> (383)
Free Base

>  <CAS> (383)
1251156-08-7

>  <URL> (383)
http://www.selleckchem.com/products/xl388.html

$$$$
CO-1686(AVL-301).cdx
csChFnd80/05071909292D

 40 43  0  0  0  0  0  0  0  0999 V2000
    2.4249    4.2000    0.0000 C   0  0  0  0  0  0  0  0  0  0  0  0
    2.4249    2.8000    0.0000 C   0  0  0  0  0  0  0  0  0  0  0  0
    3.6373    2.1000    0.0000 N   0  0  0  0  0  0  0  0  0  0  0  0
    4.8497    2.8000    0.0000 C   0  0  0  0  0  0  0  0  0  0  0  0
    4.8497    4.2000    0.0000 N   0  0  0  0  0  0  0  0  0  0  0  0
    3.6373    4.9000    0.0000 C   0  0  0  0  0  0  0  0  0  0  0  0
    3.6373    6.3000    0.0000 N   0  0  0  0  0  0  0  0  0  0  0  0
    1.2124    4.9000    0.0000 C   0  0  0  0  0  0  0  0  0  0  0  0
    0.0000    5.6000    0.0000 F   0  0  0  0  0  0  0  0  0  0  0  0
    1.9124    6.1124    0.0000 F   0  0  0  0  0  0  0  0  0  0  0  0
    0.5124    3.6876    0.0000 F   0  0  0  0  0  0  0  0  0  0  0  0
    6.0622    2.1000    0.0000 N   0  0  0  0  0  0  0  0  0  0  0  0
    7.2746    2.8000    0.0000 C   0  0  0  0  0  0  0  0  0  0  0  0
    4.8497    7.0000    0.0000 C   0  0  0  0  0  0  0  0  0  0  0  0
    8.4870    2.1000    0.0000 C   0  0  0  0  0  0  0  0  0  0  0  0
    9.6995    2.8000    0.0000 C   0  0  0  0  0  0  0  0  0  0  0  0
    9.6995    4.2000    0.0000 C   0  0  0  0  0  0  0  0  0  0  0  0
    8.4870    4.9000    0.0000 C   0  0  0  0  0  0  0  0  0  0  0  0
    7.2746    4.2000    0.0000 C   0  0  0  0  0  0  0  0  0  0  0  0
    8.4870    0.7000    0.0000 O   0  0  0  0  0  0  0  0  0  0  0  0
    9.6995    0.0000    0.0000 C   0  0  0  0  0  0  0  0  0  0  0  0
   10.9119    4.9000    0.0000 N   0  0  0  0  0  0  0  0  0  0  0  0
   12.1244    4.2000    0.0000 C   0  0  0  0  0  0  0  0  0  0  0  0
   13.3368    4.9000    0.0000 C   0  0  0  0  0  0  0  0  0  0  0  0
   13.3368    6.3000    0.0000 N   0  0  0  0  0  0  0  0  0  0  0  0
   12.1244    7.0000    0.0000 C   0  0  0  0  0  0  0  0  0  0  0  0
   10.9119    6.3000    0.0000 C   0  0  0  0  0  0  0  0  0  0  0  0
   14.5492    7.0000    0.0000 C   0  0  0  0  0  0  0  0  0  0  0  0
   15.7617    6.3000    0.0000 C   0  0  0  0  0  0  0  0  0  0  0  0
   14.5492    8.4000    0.0000 O   0  0  0  0  0  0  0  0  0  0  0  0
    6.0622    6.3000    0.0000 C   0  0  0  0  0  0  0  0  0  0  0  0
    7.2746    7.0000    0.0000 C   0  0  0  0  0  0  0  0  0  0  0  0
    7.2746    8.4000    0.0000 C   0  0  0  0  0  0  0  0  0  0  0  0
    6.0622    9.1000    0.0000 C   0  0  0  0  0  0  0  0  0  0  0  0
    4.8497    8.4000    0.0000 C   0  0  0  0  0  0  0  0  0  0  0  0
    6.0622   10.5000    0.0000 N   0  0  0  0  0  0  0  0  0  0  0  0
    7.2746   11.2000    0.0000 C   0  0  0  0  0  0  0  0  0  0  0  0
    7.2746   12.6000    0.0000 O   0  0  0  0  0  0  0  0  0  0  0  0
    8.4870   10.5000    0.0000 C   0  0  0  0  0  0  0  0  0  0  0  0
    9.6995   11.2000    0.0000 C   0  0  0  0  0  0  0  0  0  0  0  0
  1  2  2  0  0  0  0
  2  3  1  0  0  0  0
  3  4  2  0  0  0  0
  4  5  1  0  0  0  0
  5  6  2  0  0  0  0
  6  1  1  0  0  0  0
  6  7  1  0  0  0  0
  1  8  1  0  0  0  0
  4 12  1  0  0  0  0
 12 13  1  0  0  0  0
  7 14  1  0  0  0  0
 13 15  2  0  0  0  0
 15 16  1  0  0  0  0
 16 17  2  0  0  0  0
 17 18  1  0  0  0  0
 18 19  2  0  0  0  0
 19 13  1  0  0  0  0
 15 20  1  0  0  0  0
 20 21  1  0  0  0  0
 17 22  1  0  0  0  0
 22 23  1  0  0  0  0
 23 24  1  0  0  0  0
 24 25  1  0  0  0  0
 25 26  1  0  0  0  0
 26 27  1  0  0  0  0
 27 22  1  0  0  0  0
 25 28  1  0  0  0  0
 28 29  1  0  0  0  0
 28 30  2  0  0  0  0
 14 31  2  0  0  0  0
 31 32  1  0  0  0  0
 32 33  2  0  0  0  0
 33 34  1  0  0  0  0
 34 35  2  0  0  0  0
 35 14  1  0  0  0  0
 34 36  1  0  0  0  0
 36 37  1  0  0  0  0
 37 38  2  0  0  0  0
 37 39  1  0  0  0  0
 39 40  2  0  0  0  0
  8  9  1  0  0  0  0
  8 10  1  0  0  0  0
  8 11  1  0  0  0  0
M  END
>  <Mol_ID> (384)
2545

>  <Formula> (384)
C27H28F3N7O3

>  <MolWeight> (384)
555.5515296

>  <Cat> (384)
S7284

>  <Name> (384)
Rociletinib (CO-1686, AVL-301)

>  <Synonyms> (384)
CNX-419, AVL-301

>  <Target> (384)
EGFR

>  <Form> (384)
Free Base

>  <CAS> (384)
1374640-70-6

>  <URL> (384)
http://www.selleckchem.com/products/co-1686.html

$$$$
Dorsomorphin dihydrochloride(BML-275,Compound C).cdx
csChFnd80/05071909292D

 32 34  0  0  0  0  0  0  0  0999 V2000
   10.2024    7.9271    0.0000 C   0  0  0  0  0  0  0  0  0  0  0  0
   10.2024    6.5271    0.0000 C   0  0  0  0  0  0  0  0  0  0  0  0
   11.4149    5.8271    0.0000 C   0  0  0  0  0  0  0  0  0  0  0  0
   12.6273    6.5271    0.0000 C   0  0  0  0  0  0  0  0  0  0  0  0
   12.6273    7.9271    0.0000 C   0  0  0  0  0  0  0  0  0  0  0  0
   11.4149    8.6271    0.0000 C   0  0  0  0  0  0  0  0  0  0  0  0
    8.9900    8.6271    0.0000 O   0  0  0  0  0  0  0  0  0  0  0  0
    7.7776    7.9271    0.0000 C   0  0  0  0  0  0  0  0  0  0  0  0
    6.5651    8.6271    0.0000 C   0  0  0  0  0  0  0  0  0  0  0  0
    5.3527    7.9271    0.0000 N   0  0  0  0  0  0  0  0  0  0  0  0
    4.1402    8.6271    0.0000 C   0  0  0  0  0  0  0  0  0  0  0  0
    2.9278    7.9271    0.0000 C   0  0  0  0  0  0  0  0  0  0  0  0
    2.9278    6.5271    0.0000 C   0  0  0  0  0  0  0  0  0  0  0  0
    4.1402    5.8271    0.0000 C   0  0  0  0  0  0  0  0  0  0  0  0
    5.3527    6.5271    0.0000 C   0  0  0  0  0  0  0  0  0  0  0  0
   13.8397    5.8271    0.0000 C   0  0  0  0  0  0  0  0  0  0  0  0
   13.8397    4.4271    0.0000 C   0  0  0  0  0  0  0  0  0  0  0  0
   15.0522    3.7271    0.0000 N   0  0  0  0  0  0  0  0  0  0  0  0
   16.2646    4.4271    0.0000 C   0  0  0  0  0  0  0  0  0  0  0  0
   16.2646    5.8271    0.0000 N   0  0  0  0  0  0  0  0  0  0  0  0
   15.0522    6.5271    0.0000 C   0  0  0  0  0  0  0  0  0  0  0  0
   17.5961    3.9944    0.0000 C   0  0  0  0  0  0  0  0  0  0  0  0
   18.4190    5.1271    0.0000 C   0  0  0  0  0  0  0  0  0  0  0  0
   17.5961    6.2597    0.0000 N   0  0  0  0  0  0  0  0  0  0  0  0
   18.0287    2.6630    0.0000 C   0  0  0  0  0  0  0  0  0  0  0  0
   17.0919    1.6226    0.0000 C   0  0  0  0  0  0  0  0  0  0  0  0
   17.5245    0.2911    0.0000 C   0  0  0  0  0  0  0  0  0  0  0  0
   18.8940    0.0000    0.0000 N   0  0  0  0  0  0  0  0  0  0  0  0
   19.8307    1.0404    0.0000 C   0  0  0  0  0  0  0  0  0  0  0  0
   19.3981    2.3719    0.0000 C   0  0  0  0  0  0  0  0  0  0  0  0
    9.7222   22.4912    0.0000 Cl  0  0  0  0  0  0  0  0  0  0  0  0
    0.0000   22.4912    0.0000 Cl  0  0  0  0  0  0  0  0  0  0  0  0
  1  2  2  0  0  0  0
  2  3  1  0  0  0  0
  3  4  2  0  0  0  0
  4  5  1  0  0  0  0
  5  6  2  0  0  0  0
  6  1  1  0  0  0  0
  1  7  1  0  0  0  0
  7  8  1  0  0  0  0
  8  9  1  0  0  0  0
  9 10  1  0  0  0  0
 10 11  1  0  0  0  0
 11 12  1  0  0  0  0
 12 13  1  0  0  0  0
 13 14  1  0  0  0  0
 14 15  1  0  0  0  0
 15 10  1  0  0  0  0
  4 16  1  0  0  0  0
 17 18  2  0  0  0  0
 19 20  1  0  0  0  0
 21 16  2  0  0  0  0
 19 22  2  0  0  0  0
 22 23  1  0  0  0  0
 23 24  2  0  0  0  0
 24 20  1  0  0  0  0
 16 17  1  0  0  0  0
 21 20  1  0  0  0  0
 19 18  1  0  0  0  0
 22 25  1  0  0  0  0
 25 26  2  0  0  0  0
 26 27  1  0  0  0  0
 27 28  2  0  0  0  0
 28 29  1  0  0  0  0
 29 30  2  0  0  0  0
 30 25  1  0  0  0  0
M  END
>  <Mol_ID> (385)
2546

>  <Formula> (385)
C24H27Cl2N5O

>  <MolWeight> (385)
472.41008

>  <Cat> (385)
S7306

>  <Name> (385)
Dorsomorphin (Compound C) 2HCl

>  <Synonyms> (385)
BML-275,Compound C

>  <Target> (385)
AMPK

>  <Form> (385)
Dihydrochloride

>  <CAS> (385)
1219168-18-9

>  <URL> (385)
http://www.selleckchem.com/products/dorsomorphin-2hcl.html

$$$$
Skepinone-L.cdx
csChFnd80/05071909292D

 31 34  0  0  0  0  0  0  0  0999 V2000
   10.8858    4.8503    0.0000 C   0  0  0  0  0  0  0  0  0  0  0  0
   10.5780    3.4809    0.0000 C   0  0  0  0  0  0  0  0  0  0  0  0
    9.3045    2.8341    0.0000 C   0  0  0  0  0  0  0  0  0  0  0  0
    8.0655    3.4859    0.0000 C   0  0  0  0  0  0  0  0  0  0  0  0
    7.7286    4.8250    0.0000 C   0  0  0  0  0  0  0  0  0  0  0  0
    8.5947    5.9296    0.0000 C   0  0  0  0  0  0  0  0  0  0  0  0
    9.9982    5.9412    0.0000 C   0  0  0  0  0  0  0  0  0  0  0  0
   11.6142    2.5466    0.0000 C   0  0  0  0  0  0  0  0  0  0  0  0
   12.9436    2.9614    0.0000 C   0  0  0  0  0  0  0  0  0  0  0  0
   13.2493    4.3213    0.0000 C   0  0  0  0  0  0  0  0  0  0  0  0
   12.2228    5.2675    0.0000 C   0  0  0  0  0  0  0  0  0  0  0  0
    6.3840    5.2277    0.0000 C   0  0  0  0  0  0  0  0  0  0  0  0
    5.3630    4.2645    0.0000 C   0  0  0  0  0  0  0  0  0  0  0  0
    5.6724    2.9133    0.0000 C   0  0  0  0  0  0  0  0  0  0  0  0
    7.0312    2.4961    0.0000 C   0  0  0  0  0  0  0  0  0  0  0  0
    9.3045    1.4353    0.0000 O   0  0  0  0  0  0  0  0  0  0  0  0
    4.6834    1.9243    0.0000 O   0  0  0  0  0  0  0  0  0  0  0  0
    3.3292    2.3401    0.0000 C   0  0  0  0  0  0  0  0  0  0  0  0
    2.3401    1.3511    0.0000 C   0  0  1  0  0  0  0  0  0  0  0  0
    0.9891    1.7131    0.0000 C   0  0  0  0  0  0  0  0  0  0  0  0
    0.0000    0.7240    0.0000 O   0  0  0  0  0  0  0  0  0  0  0  0
    2.7022    0.0000    0.0000 O   0  0  0  0  0  0  0  0  0  0  0  0
   14.5845    4.7379    0.0000 N   0  0  0  0  0  0  0  0  0  0  0  0
   15.5736    3.7489    0.0000 C   0  0  0  0  0  0  0  0  0  0  0  0
   15.2035    2.4069    0.0000 C   0  0  0  0  0  0  0  0  0  0  0  0
   16.1970    1.3988    0.0000 C   0  0  0  0  0  0  0  0  0  0  0  0
   17.5634    1.7516    0.0000 C   0  0  0  0  0  0  0  0  0  0  0  0
   17.9434    3.1200    0.0000 C   0  0  0  0  0  0  0  0  0  0  0  0
   16.9496    4.1284    0.0000 C   0  0  0  0  0  0  0  0  0  0  0  0
   18.5524    0.7625    0.0000 F   0  0  0  0  0  0  0  0  0  0  0  0
   13.8498    2.0548    0.0000 F   0  0  0  0  0  0  0  0  0  0  0  0
  1  2  1  0  0  0  0
  2  3  1  0  0  0  0
  3  4  1  0  0  0  0
  4  5  1  0  0  0  0
  5  6  1  0  0  0  0
  6  7  1  0  0  0  0
  1  7  1  0  0  0  0
  8  9  1  0  0  0  0
  9 10  2  0  0  0  0
 10 11  1  0  0  0  0
  1 11  2  0  0  0  0
  2  8  2  0  0  0  0
 12 13  1  0  0  0  0
 13 14  2  0  0  0  0
 14 15  1  0  0  0  0
  4 15  2  0  0  0  0
  5 12  2  0  0  0  0
  3 16  2  0  0  0  0
 18 19  1  0  0  0  0
 19 20  1  0  0  0  0
 17 18  1  0  0  0  0
 20 21  1  0  0  0  0
 19 22  1  6  0  0  0
 14 17  1  0  0  0  0
 24 25  1  0  0  0  0
 25 26  2  0  0  0  0
 26 27  1  0  0  0  0
 27 28  2  0  0  0  0
 28 29  1  0  0  0  0
 24 29  2  0  0  0  0
 27 30  1  0  0  0  0
 25 31  1  0  0  0  0
 23 24  1  0  0  0  0
 10 23  1  0  0  0  0
M  END
>  <Mol_ID> (386)
2550

>  <Formula> (386)
C24H21F2NO4

>  <MolWeight> (386)
425.4246464

>  <Cat> (386)
S7214

>  <Name> (386)
Skepinone-L

>  <Synonyms> (386)
N/A

>  <Target> (386)
p38 MAPK

>  <Form> (386)
Free Base

>  <CAS> (386)
1221485-83-1

>  <URL> (386)
http://www.selleckchem.com/products/skepinone-l.html

$$$$
bms-345541.cdx
csChFnd80/05071909292D

 19 21  0  0  0  0  0  0  0  0999 V2000
    1.2124    2.1000    0.0000 C   0  0  0  0  0  0  0  0  0  0  0  0
    1.2124    0.7000    0.0000 C   0  0  0  0  0  0  0  0  0  0  0  0
    2.4249    0.0000    0.0000 C   0  0  0  0  0  0  0  0  0  0  0  0
    3.6373    0.7000    0.0000 C   0  0  0  0  0  0  0  0  0  0  0  0
    3.6373    2.1000    0.0000 C   0  0  0  0  0  0  0  0  0  0  0  0
    2.4249    2.8000    0.0000 C   0  0  0  0  0  0  0  0  0  0  0  0
    4.8497    0.0000    0.0000 N   0  0  0  0  0  0  0  0  0  0  0  0
    6.0622    0.7000    0.0000 C   0  0  0  0  0  0  0  0  0  0  0  0
    6.0622    2.1000    0.0000 C   0  0  0  0  0  0  0  0  0  0  0  0
    4.8497    2.8000    0.0000 N   0  0  0  0  0  0  0  0  0  0  0  0
    7.1026    3.0368    0.0000 N   0  0  0  0  0  0  0  0  0  0  0  0
    6.5331    4.3157    0.0000 C   0  0  0  0  0  0  0  0  0  0  0  0
    5.1408    4.1694    0.0000 C   0  0  0  0  0  0  0  0  0  0  0  0
    0.0000    2.8000    0.0000 C   0  0  0  0  0  0  0  0  0  0  0  0
    4.2040    5.2098    0.0000 C   0  0  0  0  0  0  0  0  0  0  0  0
    7.2746    0.0000    0.0000 N   0  0  0  0  0  0  0  0  0  0  0  0
    8.4870    0.7000    0.0000 C   0  0  0  0  0  0  0  0  0  0  0  0
    9.6995    0.0000    0.0000 C   0  0  0  0  0  0  0  0  0  0  0  0
   10.9119    0.7000    0.0000 N   0  0  0  0  0  0  0  0  0  0  0  0
  1  2  2  0  0  0  0
  2  3  1  0  0  0  0
  3  4  2  0  0  0  0
  4  5  1  0  0  0  0
  5  6  2  0  0  0  0
  6  1  1  0  0  0  0
  4  7  1  0  0  0  0
  7  8  2  0  0  0  0
  8  9  1  0  0  0  0
  9 10  1  0  0  0  0
 10  5  1  0  0  0  0
  9 11  2  0  0  0  0
 11 12  1  0  0  0  0
 12 13  2  0  0  0  0
 13 10  1  0  0  0  0
  1 14  1  0  0  0  0
 13 15  1  0  0  0  0
  8 16  1  0  0  0  0
 16 17  1  0  0  0  0
 17 18  1  0  0  0  0
 18 19  1  0  0  0  0
M  END
>  <Mol_ID> (387)
2606

>  <Formula> (387)
C14H17N5

>  <MolWeight> (387)
255.31828

>  <Cat> (387)
S8044

>  <Name> (387)
bms-345541

>  <Synonyms> (387)
N/A

>  <Target> (387)
IB/IKK

>  <Form> (387)
Free Base

>  <CAS> (387)
445430-58-0

>  <URL> (387)
http://www.selleckchem.com/products/bms-345541.html

$$$$
XL019.cdx
csChFnd80/05071909292D

 33 37  0  0  0  0  0  0  0  0999 V2000
    0.0000    6.2951    0.0000 C   0  0  0  0  0  0  0  0  0  0  0  0
    0.0000    4.8951    0.0000 C   0  0  0  0  0  0  0  0  0  0  0  0
    1.2124    4.1951    0.0000 C   0  0  0  0  0  0  0  0  0  0  0  0
    2.4249    4.8951    0.0000 C   0  0  0  0  0  0  0  0  0  0  0  0
    2.4249    6.2951    0.0000 C   0  0  0  0  0  0  0  0  0  0  0  0
    1.2124    6.9951    0.0000 C   0  0  0  0  0  0  0  0  0  0  0  0
    1.2124    2.8000    0.0000 C   0  0  0  0  0  0  0  0  0  0  0  0
    0.0000    2.1000    0.0000 C   0  0  0  0  0  0  0  0  0  0  0  0
    0.0000    0.7000    0.0000 C   0  0  0  0  0  0  0  0  0  0  0  0
    1.2124    0.0000    0.0000 N   0  0  0  0  0  0  0  0  0  0  0  0
    2.4249    0.7000    0.0000 C   0  0  0  0  0  0  0  0  0  0  0  0
    2.4249    2.1000    0.0000 N   0  0  0  0  0  0  0  0  0  0  0  0
    3.6331    0.0024    0.0000 N   0  0  0  0  0  0  0  0  0  0  0  0
    4.8413    0.7000    0.0000 C   0  0  0  0  0  0  0  0  0  0  0  0
    6.0538    0.0000    0.0000 C   0  0  0  0  0  0  0  0  0  0  0  0
    7.2662    0.7000    0.0000 C   0  0  0  0  0  0  0  0  0  0  0  0
    7.2662    2.1000    0.0000 C   0  0  0  0  0  0  0  0  0  0  0  0
    6.0538    2.8000    0.0000 C   0  0  0  0  0  0  0  0  0  0  0  0
    4.8413    2.1000    0.0000 C   0  0  0  0  0  0  0  0  0  0  0  0
    8.4744    2.7976    0.0000 N   0  0  0  0  0  0  0  0  0  0  0  0
    9.6869    2.0976    0.0000 C   0  0  0  0  0  0  0  0  0  0  0  0
   10.8993    2.7976    0.0000 C   0  0  0  0  0  0  0  0  0  0  0  0
   10.8993    4.1976    0.0000 O   0  0  0  0  0  0  0  0  0  0  0  0
    9.6869    4.8976    0.0000 C   0  0  0  0  0  0  0  0  0  0  0  0
    8.4744    4.1976    0.0000 C   0  0  0  0  0  0  0  0  0  0  0  0
    1.2124    8.3903    0.0000 N   0  0  0  0  0  0  0  0  0  0  0  0
    2.4207    9.0879    0.0000 C   0  0  0  0  0  0  0  0  0  0  0  0
    3.6289    8.3903    0.0000 C   0  0  2  0  0  0  0  0  0  0  0  0
    2.4207   10.4830    0.0000 O   0  0  0  0  0  0  0  0  0  0  0  0
    3.7752    6.9980    0.0000 C   0  0  0  0  0  0  0  0  0  0  0  0
    5.1446    6.7069    0.0000 C   0  0  0  0  0  0  0  0  0  0  0  0
    5.8446    7.9193    0.0000 C   0  0  0  0  0  0  0  0  0  0  0  0
    4.9079    8.9597    0.0000 N   0  0  0  0  0  0  0  0  0  0  0  0
  1  2  2  0  0  0  0
  2  3  1  0  0  0  0
  3  4  2  0  0  0  0
  4  5  1  0  0  0  0
  5  6  2  0  0  0  0
  6  1  1  0  0  0  0
  3  7  1  0  0  0  0
  7  8  2  0  0  0  0
  8  9  1  0  0  0  0
  9 10  2  0  0  0  0
 10 11  1  0  0  0  0
 11 12  2  0  0  0  0
 12  7  1  0  0  0  0
 11 13  1  0  0  0  0
 13 14  1  0  0  0  0
 14 15  2  0  0  0  0
 15 16  1  0  0  0  0
 16 17  2  0  0  0  0
 17 18  1  0  0  0  0
 18 19  2  0  0  0  0
 19 14  1  0  0  0  0
 17 20  1  0  0  0  0
 20 21  1  0  0  0  0
 21 22  1  0  0  0  0
 22 23  1  0  0  0  0
 23 24  1  0  0  0  0
 24 25  1  0  0  0  0
 25 20  1  0  0  0  0
  6 26  1  0  0  0  0
 26 27  1  0  0  0  0
 27 28  1  0  0  0  0
 27 29  2  0  0  0  0
 28 30  1  0  0  0  0
 30 31  1  0  0  0  0
 31 32  1  0  0  0  0
 32 33  1  0  0  0  0
 28 33  1  1  0  0  0
M  END
>  <Mol_ID> (388)
2611

>  <Formula> (388)
C25H28N6O2

>  <MolWeight> (388)
444.52882

>  <Cat> (388)
S7036

>  <Name> (388)
XL019

>  <Synonyms> (388)
N/A

>  <Target> (388)
JAK

>  <Form> (388)
Free Base

>  <CAS> (388)
945755-56-6

>  <URL> (388)
http://www.selleckchem.com/products/xl019.html

$$$$
SSR128129E (SSR).cdx
csChFnd80/05071909292D

 25 27  0  0  0  0  0  0  0  0999 V2000
    0.0000    5.0777    0.0000 C   0  0  0  0  0  0  0  0  0  0  0  0
    0.0000    3.6777    0.0000 C   0  0  0  0  0  0  0  0  0  0  0  0
    1.2124    2.9777    0.0000 C   0  0  0  0  0  0  0  0  0  0  0  0
    2.4249    3.6777    0.0000 N   0  0  0  0  0  0  0  0  0  0  0  0
    2.4249    5.0777    0.0000 C   0  0  0  0  0  0  0  0  0  0  0  0
    1.2124    5.7777    0.0000 C   0  0  0  0  0  0  0  0  0  0  0  0
    3.7564    3.2451    0.0000 C   0  0  0  0  0  0  0  0  0  0  0  0
    4.5792    4.3777    0.0000 C   0  0  0  0  0  0  0  0  0  0  0  0
    3.7564    5.5104    0.0000 C   0  0  0  0  0  0  0  0  0  0  0  0
    4.1890    6.8418    0.0000 O   0  0  0  0  0  0  0  0  0  0  0  0
    5.5584    7.1329    0.0000 C   0  0  0  0  0  0  0  0  0  0  0  0
    5.9792    4.3777    0.0000 C   0  0  0  0  0  0  0  0  0  0  0  0
    4.1890    1.9136    0.0000 C   0  0  0  0  0  0  0  0  0  0  0  0
    3.2522    0.8732    0.0000 O   0  0  0  0  0  0  0  0  0  0  0  0
    5.5584    1.6226    0.0000 C   0  0  0  0  0  0  0  0  0  0  0  0
    5.9910    0.2911    0.0000 C   0  0  0  0  0  0  0  0  0  0  0  0
    7.3604    0.0000    0.0000 C   0  0  0  0  0  0  0  0  0  0  0  0
    8.2972    1.0404    0.0000 C   0  0  0  0  0  0  0  0  0  0  0  0
    7.8646    2.3719    0.0000 C   0  0  0  0  0  0  0  0  0  0  0  0
    6.4952    2.6630    0.0000 C   0  0  0  0  0  0  0  0  0  0  0  0
    8.8014    3.4123    0.0000 C   0  0  0  0  0  0  0  0  0  0  0  0
   10.1708    3.1212    0.0000 O   0  0  0  0  0  0  0  0  0  0  0  0
   11.1607    4.1112    0.0000 Na  0  0  0  0  0  0  0  0  0  0  0  0
    8.3687    4.7438    0.0000 O   0  0  0  0  0  0  0  0  0  0  0  0
    9.6666    0.7493    0.0000 N   0  0  0  0  0  0  0  0  0  0  0  0
  2  3  2  0  0  0  0
  4  5  1  0  0  0  0
  6  1  2  0  0  0  0
  4  7  1  0  0  0  0
  7  8  2  0  0  0  0
  8  9  1  0  0  0  0
  9  5  2  0  0  0  0
  1  2  1  0  0  0  0
  3  4  1  0  0  0  0
  6  5  1  0  0  0  0
  9 10  1  0  0  0  0
 10 11  1  0  0  0  0
  8 12  1  0  0  0  0
  7 13  1  0  0  0  0
 13 14  2  0  0  0  0
 13 15  1  0  0  0  0
 15 16  2  0  0  0  0
 16 17  1  0  0  0  0
 17 18  2  0  0  0  0
 18 19  1  0  0  0  0
 19 20  2  0  0  0  0
 20 15  1  0  0  0  0
 19 21  1  0  0  0  0
 21 22  1  0  0  0  0
 21 24  2  0  0  0  0
 18 25  1  0  0  0  0
 22 23  1  0  0  0  0
M  END
>  <Mol_ID> (389)
2614

>  <Formula> (389)
C18H15N2NaO4

>  <MolWeight> (389)
346.31247

>  <Cat> (389)
S7167

>  <Name> (389)
SSR128129E (SSR)

>  <Synonyms> (389)
SSR

>  <Target> (389)
FGFR

>  <Form> (389)
Free Base

>  <CAS> (389)
848318-25-2

>  <URL> (389)
http://www.selleckchem.com/products/ssr128129e.html

$$$$
TAK-632.cdx
csChFnd80/05071909292D

 39 43  0  0  0  0  0  0  0  0999 V2000
    6.8668    4.9000    0.0000 C   0  0  0  0  0  0  0  0  0  0  0  0
    6.8668    3.5000    0.0000 C   0  0  0  0  0  0  0  0  0  0  0  0
    8.0792    2.8000    0.0000 C   0  0  0  0  0  0  0  0  0  0  0  0
    9.2917    3.5000    0.0000 C   0  0  0  0  0  0  0  0  0  0  0  0
    9.2917    4.9000    0.0000 C   0  0  0  0  0  0  0  0  0  0  0  0
    8.0792    5.6000    0.0000 C   0  0  0  0  0  0  0  0  0  0  0  0
    5.5353    5.3326    0.0000 N   0  0  0  0  0  0  0  0  0  0  0  0
    4.7124    4.2000    0.0000 C   0  0  0  0  0  0  0  0  0  0  0  0
    5.5353    3.0674    0.0000 S   0  0  0  0  0  0  0  0  0  0  0  0
    3.3124    4.2000    0.0000 N   0  0  0  0  0  0  0  0  0  0  0  0
    2.6124    2.9876    0.0000 C   0  0  0  0  0  0  0  0  0  0  0  0
    1.2124    2.9876    0.0000 C   0  0  0  0  0  0  0  0  0  0  0  0
    3.3124    1.7751    0.0000 O   0  0  0  0  0  0  0  0  0  0  0  0
    0.0000    3.6876    0.0000 C   0  0  0  0  0  0  0  0  0  0  0  0
    0.0000    2.2876    0.0000 C   0  0  0  0  0  0  0  0  0  0  0  0
    8.0792    1.4000    0.0000 C   0  0  0  0  0  0  0  0  0  0  0  0
    8.0792    0.0000    0.0000 N   0  0  0  0  0  0  0  0  0  0  0  0
   10.5041    2.8000    0.0000 O   0  0  0  0  0  0  0  0  0  0  0  0
   11.7166    3.5000    0.0000 C   0  0  0  0  0  0  0  0  0  0  0  0
   12.9290    2.8000    0.0000 C   0  0  0  0  0  0  0  0  0  0  0  0
   14.1414    3.5000    0.0000 C   0  0  0  0  0  0  0  0  0  0  0  0
   14.1414    4.9000    0.0000 C   0  0  0  0  0  0  0  0  0  0  0  0
   12.9290    5.6000    0.0000 C   0  0  0  0  0  0  0  0  0  0  0  0
   11.7166    4.9000    0.0000 C   0  0  0  0  0  0  0  0  0  0  0  0
   15.3539    5.6000    0.0000 F   0  0  0  0  0  0  0  0  0  0  0  0
   15.3539    2.8000    0.0000 N   0  0  0  0  0  0  0  0  0  0  0  0
   16.5663    3.5000    0.0000 C   0  0  0  0  0  0  0  0  0  0  0  0
   17.7787    2.8000    0.0000 C   0  0  0  0  0  0  0  0  0  0  0  0
   16.5663    4.9000    0.0000 O   0  0  0  0  0  0  0  0  0  0  0  0
   18.9912    3.5000    0.0000 C   0  0  0  0  0  0  0  0  0  0  0  0
   20.2036    2.8000    0.0000 C   0  0  0  0  0  0  0  0  0  0  0  0
   21.4160    3.5000    0.0000 C   0  0  0  0  0  0  0  0  0  0  0  0
   21.4160    4.9000    0.0000 C   0  0  0  0  0  0  0  0  0  0  0  0
   20.2036    5.6000    0.0000 C   0  0  0  0  0  0  0  0  0  0  0  0
   18.9912    4.9000    0.0000 C   0  0  0  0  0  0  0  0  0  0  0  0
   20.2036    7.0000    0.0000 C   0  0  0  0  0  0  0  0  0  0  0  0
   18.8036    7.0000    0.0000 F   0  0  0  0  0  0  0  0  0  0  0  0
   20.2036    8.4000    0.0000 F   0  0  0  0  0  0  0  0  0  0  0  0
   21.6036    7.0000    0.0000 F   0  0  0  0  0  0  0  0  0  0  0  0
  1  2  2  0  0  0  0
  2  3  1  0  0  0  0
  3  4  2  0  0  0  0
  4  5  1  0  0  0  0
  5  6  2  0  0  0  0
  6  1  1  0  0  0  0
  1  7  1  0  0  0  0
  7  8  2  0  0  0  0
  8  9  1  0  0  0  0
  9  2  1  0  0  0  0
  8 10  1  0  0  0  0
 10 11  1  0  0  0  0
 11 12  1  0  0  0  0
 11 13  2  0  0  0  0
 12 14  1  0  0  0  0
 14 15  1  0  0  0  0
 15 12  1  0  0  0  0
  3 16  1  0  0  0  0
  4 18  1  0  0  0  0
 18 19  1  0  0  0  0
 19 20  2  0  0  0  0
 20 21  1  0  0  0  0
 21 22  2  0  0  0  0
 22 23  1  0  0  0  0
 23 24  2  0  0  0  0
 24 19  1  0  0  0  0
 22 25  1  0  0  0  0
 21 26  1  0  0  0  0
 26 27  1  0  0  0  0
 27 28  1  0  0  0  0
 27 29  2  0  0  0  0
 28 30  1  0  0  0  0
 30 31  2  0  0  0  0
 31 32  1  0  0  0  0
 32 33  2  0  0  0  0
 33 34  1  0  0  0  0
 34 35  2  0  0  0  0
 35 30  1  0  0  0  0
 34 36  1  0  0  0  0
 16 17  3  0  0  0  0
 36 37  1  0  0  0  0
 36 38  1  0  0  0  0
 36 39  1  0  0  0  0
M  END
>  <Mol_ID> (390)
2615

>  <Formula> (390)
C27H18F4N4O3S

>  <MolWeight> (390)
554.5154328

>  <Cat> (390)
S7291 

>  <Name> (390)
TAK-632

>  <Synonyms> (390)
N/A

>  <Target> (390)
Raf

>  <Form> (390)
Free Base

>  <CAS> (390)
1228591-30-7

>  <URL> (390)
http://www.selleckchem.com/products/tak-632.html

$$$$
GSK2606414.cdx
csChFnd80/05071909292D

 33 37  0  0  0  0  0  0  0  0999 V2000
    5.2260    5.0555    0.0000 C   0  0  0  0  0  0  0  0  0  0  0  0
    5.2260    3.6555    0.0000 C   0  0  0  0  0  0  0  0  0  0  0  0
    6.4384    2.9555    0.0000 C   0  0  0  0  0  0  0  0  0  0  0  0
    7.6509    3.6555    0.0000 C   0  0  0  0  0  0  0  0  0  0  0  0
    7.6509    5.0555    0.0000 C   0  0  0  0  0  0  0  0  0  0  0  0
    6.4384    5.7555    0.0000 C   0  0  0  0  0  0  0  0  0  0  0  0
    8.9824    3.2229    0.0000 C   0  0  0  0  0  0  0  0  0  0  0  0
    9.8053    4.3555    0.0000 C   0  0  0  0  0  0  0  0  0  0  0  0
    8.9824    5.4881    0.0000 N   0  0  0  0  0  0  0  0  0  0  0  0
    9.4135    6.8150    0.0000 C   0  0  0  0  0  0  0  0  0  0  0  0
    8.4270    7.8015    0.0000 O   0  0  0  0  0  0  0  0  0  0  0  0
   10.7781    7.1050    0.0000 C   0  0  0  0  0  0  0  0  0  0  0  0
    4.0178    2.9579    0.0000 C   0  0  0  0  0  0  0  0  0  0  0  0
    2.7388    3.5274    0.0000 C   0  0  0  0  0  0  0  0  0  0  0  0
    1.8020    2.4870    0.0000 C   0  0  0  0  0  0  0  0  0  0  0  0
    2.5020    1.2745    0.0000 N   0  0  0  0  0  0  0  0  0  0  0  0
    3.8714    1.5656    0.0000 C   0  0  0  0  0  0  0  0  0  0  0  0
    2.3062    4.8588    0.0000 C   0  0  0  0  0  0  0  0  0  0  0  0
    0.9368    5.1499    0.0000 N   0  0  0  0  0  0  0  0  0  0  0  0
    0.0000    4.1095    0.0000 C   0  0  0  0  0  0  0  0  0  0  0  0
    0.4326    2.7780    0.0000 N   0  0  0  0  0  0  0  0  0  0  0  0
    3.2397    5.8956    0.0000 N   0  0  0  0  0  0  0  0  0  0  0  0
    1.9346    0.0000    0.0000 C   0  0  0  0  0  0  0  0  0  0  0  0
   11.7646    6.1185    0.0000 C   0  0  0  0  0  0  0  0  0  0  0  0
   11.4023    4.7662    0.0000 C   0  0  0  0  0  0  0  0  0  0  0  0
   12.3922    3.7763    0.0000 C   0  0  0  0  0  0  0  0  0  0  0  0
   13.7445    4.1386    0.0000 C   0  0  0  0  0  0  0  0  0  0  0  0
   14.1069    5.4909    0.0000 C   0  0  0  0  0  0  0  0  0  0  0  0
   13.1169    6.4809    0.0000 C   0  0  0  0  0  0  0  0  0  0  0  0
   15.4545    5.8520    0.0000 C   0  0  0  0  0  0  0  0  0  0  0  0
   15.0921    7.2043    0.0000 F   0  0  0  0  0  0  0  0  0  0  0  0
   16.8068    6.2144    0.0000 F   0  0  0  0  0  0  0  0  0  0  0  0
   15.8168    4.4997    0.0000 F   0  0  0  0  0  0  0  0  0  0  0  0
  1  2  2  0  0  0  0
  2  3  1  0  0  0  0
  3  4  2  0  0  0  0
  4  5  1  0  0  0  0
  5  6  2  0  0  0  0
  6  1  1  0  0  0  0
  4  7  1  0  0  0  0
  7  8  1  0  0  0  0
  8  9  1  0  0  0  0
  9  5  1  0  0  0  0
  9 10  1  0  0  0  0
 10 11  2  0  0  0  0
 10 12  1  0  0  0  0
  2 13  1  0  0  0  0
 13 14  1  0  0  0  0
 14 15  2  0  0  0  0
 15 16  1  0  0  0  0
 16 17  1  0  0  0  0
 17 13  2  0  0  0  0
 14 18  1  0  0  0  0
 18 19  2  0  0  0  0
 19 20  1  0  0  0  0
 20 21  2  0  0  0  0
 21 15  1  0  0  0  0
 18 22  1  0  0  0  0
 16 23  1  0  0  0  0
 12 24  1  0  0  0  0
 24 25  2  0  0  0  0
 25 26  1  0  0  0  0
 26 27  2  0  0  0  0
 27 28  1  0  0  0  0
 28 29  2  0  0  0  0
 29 24  1  0  0  0  0
 28 30  1  0  0  0  0
 30 31  1  0  0  0  0
 30 32  1  0  0  0  0
 30 33  1  0  0  0  0
M  END
>  <Mol_ID> (391)
2618

>  <Formula> (391)
C24H20F3N5O

>  <MolWeight> (391)
451.4437096

>  <Cat> (391)
S7307 

>  <Name> (391)
GSK2606414

>  <Synonyms> (391)
N/A

>  <Target> (391)
PERK

>  <Form> (391)
Free Base

>  <CAS> (391)
1337531-36-8

>  <URL> (391)
http://www.selleckchem.com/products/gsk2606414.html

$$$$
AVL-292.cdx
csChFnd80/05071909292D

 31 33  0  0  0  0  0  0  0  0999 V2000
    1.2124    2.1000    0.0000 C   0  0  0  0  0  0  0  0  0  0  0  0
    1.2124    0.7000    0.0000 C   0  0  0  0  0  0  0  0  0  0  0  0
    2.4249    0.0000    0.0000 N   0  0  0  0  0  0  0  0  0  0  0  0
    3.6373    0.7000    0.0000 C   0  0  0  0  0  0  0  0  0  0  0  0
    3.6373    2.1000    0.0000 N   0  0  0  0  0  0  0  0  0  0  0  0
    2.4249    2.8000    0.0000 C   0  0  0  0  0  0  0  0  0  0  0  0
    0.0000    2.8000    0.0000 F   0  0  0  0  0  0  0  0  0  0  0  0
    2.4249    4.2000    0.0000 N   0  0  0  0  0  0  0  0  0  0  0  0
    4.8497    0.0000    0.0000 N   0  0  0  0  0  0  0  0  0  0  0  0
    3.6373    4.9000    0.0000 C   0  0  0  0  0  0  0  0  0  0  0  0
    4.8497    4.2000    0.0000 C   0  0  0  0  0  0  0  0  0  0  0  0
    6.0622    4.9000    0.0000 C   0  0  0  0  0  0  0  0  0  0  0  0
    6.0622    6.3000    0.0000 C   0  0  0  0  0  0  0  0  0  0  0  0
    4.8497    7.0000    0.0000 C   0  0  0  0  0  0  0  0  0  0  0  0
    3.6373    6.3000    0.0000 C   0  0  0  0  0  0  0  0  0  0  0  0
    7.2746    4.2000    0.0000 N   0  0  0  0  0  0  0  0  0  0  0  0
    8.4870    4.9000    0.0000 C   0  0  0  0  0  0  0  0  0  0  0  0
    9.6995    4.2000    0.0000 C   0  0  0  0  0  0  0  0  0  0  0  0
    8.4870    6.3000    0.0000 O   0  0  0  0  0  0  0  0  0  0  0  0
   10.9119    4.9000    0.0000 C   0  0  0  0  0  0  0  0  0  0  0  0
    6.0622    0.7000    0.0000 C   0  0  0  0  0  0  0  0  0  0  0  0
    7.2746    0.0000    0.0000 C   0  0  0  0  0  0  0  0  0  0  0  0
    8.4870    0.7000    0.0000 C   0  0  0  0  0  0  0  0  0  0  0  0
    8.4870    2.1000    0.0000 C   0  0  0  0  0  0  0  0  0  0  0  0
    7.2746    2.8000    0.0000 C   0  0  0  0  0  0  0  0  0  0  0  0
    6.0622    2.1000    0.0000 C   0  0  0  0  0  0  0  0  0  0  0  0
    9.6995    2.8000    0.0000 O   0  0  0  0  0  0  0  0  0  0  0  0
   10.9119    2.1000    0.0000 C   0  0  0  0  0  0  0  0  0  0  0  0
   12.1244    2.8000    0.0000 C   0  0  0  0  0  0  0  0  0  0  0  0
   13.3368    2.1000    0.0000 O   0  0  0  0  0  0  0  0  0  0  0  0
   14.5492    2.8000    0.0000 C   0  0  0  0  0  0  0  0  0  0  0  0
  1  2  2  0  0  0  0
  2  3  1  0  0  0  0
  3  4  2  0  0  0  0
  4  5  1  0  0  0  0
  5  6  2  0  0  0  0
  6  1  1  0  0  0  0
  1  7  1  0  0  0  0
  6  8  1  0  0  0  0
  4  9  1  0  0  0  0
  8 10  1  0  0  0  0
 10 11  2  0  0  0  0
 11 12  1  0  0  0  0
 12 13  2  0  0  0  0
 13 14  1  0  0  0  0
 14 15  2  0  0  0  0
 15 10  1  0  0  0  0
 12 16  1  0  0  0  0
 16 17  1  0  0  0  0
 17 18  1  0  0  0  0
 17 19  2  0  0  0  0
 18 20  2  0  0  0  0
  9 21  1  0  0  0  0
 21 22  2  0  0  0  0
 22 23  1  0  0  0  0
 23 24  2  0  0  0  0
 24 25  1  0  0  0  0
 25 26  2  0  0  0  0
 26 21  1  0  0  0  0
 24 27  1  0  0  0  0
 27 28  1  0  0  0  0
 28 29  1  0  0  0  0
 29 30  1  0  0  0  0
 30 31  1  0  0  0  0
M  END
>  <Mol_ID> (392)
2621

>  <Formula> (392)
C22H22FN5O3

>  <MolWeight> (392)
423.4401832

>  <Cat> (392)
S7173

>  <Name> (392)
CC-292 (AVL-292)

>  <Synonyms> (392)
CC-292

>  <Target> (392)
BTK

>  <Form> (392)
Free Base

>  <CAS> (392)
1202757-89-8

>  <URL> (392)
http://www.selleckchem.com/products/avl-292.html

$$$$
AZ191.cdx
csChFnd80/05071909292D

 32 36  0  0  0  0  0  0  0  0999 V2000
    0.0000    3.6051    0.0000 C   0  0  0  0  0  0  0  0  0  0  0  0
    0.0000    2.2051    0.0000 N   0  0  0  0  0  0  0  0  0  0  0  0
    1.2124    1.5051    0.0000 C   0  0  0  0  0  0  0  0  0  0  0  0
    2.4249    2.2051    0.0000 C   0  0  0  0  0  0  0  0  0  0  0  0
    2.4249    3.6051    0.0000 C   0  0  0  0  0  0  0  0  0  0  0  0
    1.2124    4.3051    0.0000 C   0  0  0  0  0  0  0  0  0  0  0  0
    3.7564    1.7725    0.0000 N   0  0  0  0  0  0  0  0  0  0  0  0
    4.5792    2.9051    0.0000 C   0  0  0  0  0  0  0  0  0  0  0  0
    3.7564    4.0377    0.0000 C   0  0  0  0  0  0  0  0  0  0  0  0
    4.1890    5.3692    0.0000 C   0  0  0  0  0  0  0  0  0  0  0  0
    4.1890    0.4410    0.0000 C   0  0  0  0  0  0  0  0  0  0  0  0
    5.5584    5.6603    0.0000 N   0  0  0  0  0  0  0  0  0  0  0  0
    5.9910    6.9917    0.0000 C   0  0  0  0  0  0  0  0  0  0  0  0
    5.0542    8.0321    0.0000 N   0  0  0  0  0  0  0  0  0  0  0  0
    3.6848    7.7411    0.0000 C   0  0  0  0  0  0  0  0  0  0  0  0
    3.2522    6.4096    0.0000 C   0  0  0  0  0  0  0  0  0  0  0  0
    7.3604    7.2828    0.0000 N   0  0  0  0  0  0  0  0  0  0  0  0
    8.2972    6.2424    0.0000 C   0  0  0  0  0  0  0  0  0  0  0  0
    7.8646    4.9109    0.0000 C   0  0  0  0  0  0  0  0  0  0  0  0
    8.8014    3.8705    0.0000 C   0  0  0  0  0  0  0  0  0  0  0  0
   10.1708    4.1616    0.0000 C   0  0  0  0  0  0  0  0  0  0  0  0
   10.6034    5.4931    0.0000 C   0  0  0  0  0  0  0  0  0  0  0  0
    9.6666    6.5335    0.0000 C   0  0  0  0  0  0  0  0  0  0  0  0
   10.0992    7.8650    0.0000 O   0  0  0  0  0  0  0  0  0  0  0  0
   11.4686    8.1560    0.0000 C   0  0  0  0  0  0  0  0  0  0  0  0
   11.1075    3.1212    0.0000 N   0  0  0  0  0  0  0  0  0  0  0  0
   10.6749    1.7897    0.0000 C   0  0  0  0  0  0  0  0  0  0  0  0
   11.6117    0.7493    0.0000 C   0  0  0  0  0  0  0  0  0  0  0  0
   12.9811    1.0404    0.0000 N   0  0  0  0  0  0  0  0  0  0  0  0
   13.4137    2.3719    0.0000 C   0  0  0  0  0  0  0  0  0  0  0  0
   12.4769    3.4123    0.0000 C   0  0  0  0  0  0  0  0  0  0  0  0
   13.9179    0.0000    0.0000 C   0  0  0  0  0  0  0  0  0  0  0  0
  1  2  2  0  0  0  0
  2  3  1  0  0  0  0
  3  4  2  0  0  0  0
  4  5  1  0  0  0  0
  5  6  2  0  0  0  0
  6  1  1  0  0  0  0
  4  7  1  0  0  0  0
  7  8  1  0  0  0  0
  8  9  2  0  0  0  0
  9  5  1  0  0  0  0
  9 10  1  0  0  0  0
  7 11  1  0  0  0  0
 10 12  2  0  0  0  0
 12 13  1  0  0  0  0
 13 14  2  0  0  0  0
 14 15  1  0  0  0  0
 15 16  2  0  0  0  0
 16 10  1  0  0  0  0
 13 17  1  0  0  0  0
 17 18  1  0  0  0  0
 18 19  2  0  0  0  0
 19 20  1  0  0  0  0
 20 21  2  0  0  0  0
 21 22  1  0  0  0  0
 22 23  2  0  0  0  0
 23 18  1  0  0  0  0
 23 24  1  0  0  0  0
 24 25  1  0  0  0  0
 21 26  1  0  0  0  0
 26 27  1  0  0  0  0
 27 28  1  0  0  0  0
 28 29  1  0  0  0  0
 29 30  1  0  0  0  0
 30 31  1  0  0  0  0
 31 26  1  0  0  0  0
 29 32  1  0  0  0  0
M  END
>  <Mol_ID> (393)
2623

>  <Formula> (393)
C24H27N7O

>  <MolWeight> (393)
429.51748

>  <Cat> (393)
S7338

>  <Name> (393)
AZ191

>  <Synonyms> (393)
N/A

>  <Target> (393)
DYRK

>  <Form> (393)
Free Base

>  <URL> (393)
http://www.selleckchem.com/products/az191.html

$$$$
Pacritinib (SB1518).cdx
csChFnd80/05071909292D

 35 39  0  0  0  0  0  0  0  0999 V2000
    0.0000    2.1000    0.0000 C   0  0  0  0  0  0  0  0  0  0  0  0
    0.0000    0.7000    0.0000 C   0  0  0  0  0  0  0  0  0  0  0  0
    1.2124    0.0000    0.0000 N   0  0  0  0  0  0  0  0  0  0  0  0
    2.4249    0.7000    0.0000 C   0  0  0  0  0  0  0  0  0  0  0  0
    2.4249    2.1000    0.0000 N   0  0  0  0  0  0  0  0  0  0  0  0
    1.2124    2.8000    0.0000 C   0  0  0  0  0  0  0  0  0  0  0  0
    1.2124    4.1951    0.0000 C   0  0  0  0  0  0  0  0  0  0  0  0
    2.4249    4.8951    0.0000 C   0  0  0  0  0  0  0  0  0  0  0  0
    2.4249    6.2951    0.0000 C   0  0  0  0  0  0  0  0  0  0  0  0
    1.2124    6.9951    0.0000 C   0  0  0  0  0  0  0  0  0  0  0  0
    0.0000    6.2951    0.0000 C   0  0  0  0  0  0  0  0  0  0  0  0
    0.0000    4.8951    0.0000 C   0  0  0  0  0  0  0  0  0  0  0  0
    3.6331    6.9927    0.0000 C   0  0  0  0  0  0  0  0  0  0  0  0
    3.6331    8.3879    0.0000 O   0  0  0  0  0  0  0  0  0  0  0  0
    4.8455    9.0879    0.0000 C   0  0  0  0  0  0  0  0  0  0  0  0
    6.0538    8.3903    0.0000 C   0  0  0  0  0  0  0  0  0  0  0  0
    6.0538    6.9951    0.0000 C   0  0  0  0  0  0  0  0  0  0  0  0
    7.2662    6.2951    0.0000 C   0  0  0  0  0  0  0  0  0  0  0  0
    7.2662    4.9000    0.0000 O   0  0  0  0  0  0  0  0  0  0  0  0
    6.0580    4.2024    0.0000 C   0  0  0  0  0  0  0  0  0  0  0  0
    6.0580    2.8073    0.0000 C   0  0  0  0  0  0  0  0  0  0  0  0
    4.8455    2.1073    0.0000 C   0  0  0  0  0  0  0  0  0  0  0  0
    4.8455    0.7073    0.0000 C   0  0  0  0  0  0  0  0  0  0  0  0
    6.0580    0.0073    0.0000 C   0  0  0  0  0  0  0  0  0  0  0  0
    7.2704    0.7073    0.0000 C   0  0  0  0  0  0  0  0  0  0  0  0
    7.2704    2.1073    0.0000 C   0  0  0  0  0  0  0  0  0  0  0  0
    3.6331    0.0024    0.0000 N   0  0  0  0  0  0  0  0  0  0  0  0
    8.4786    2.8049    0.0000 O   0  0  0  0  0  0  0  0  0  0  0  0
    9.6869    2.1073    0.0000 C   0  0  0  0  0  0  0  0  0  0  0  0
   10.8951    2.8049    0.0000 C   0  0  0  0  0  0  0  0  0  0  0  0
   12.1075    2.1049    0.0000 N   0  0  0  0  0  0  0  0  0  0  0  0
   12.2539    0.7125    0.0000 C   0  0  0  0  0  0  0  0  0  0  0  0
   13.6233    0.4215    0.0000 C   0  0  0  0  0  0  0  0  0  0  0  0
   14.3233    1.6339    0.0000 C   0  0  0  0  0  0  0  0  0  0  0  0
   13.3865    2.6743    0.0000 C   0  0  0  0  0  0  0  0  0  0  0  0
  1  2  2  0  0  0  0
  2  3  1  0  0  0  0
  3  4  2  0  0  0  0
  4  5  1  0  0  0  0
  5  6  2  0  0  0  0
  6  1  1  0  0  0  0
  6  7  1  0  0  0  0
  7  8  2  0  0  0  0
  8  9  1  0  0  0  0
  9 10  2  0  0  0  0
 10 11  1  0  0  0  0
 11 12  2  0  0  0  0
 12  7  1  0  0  0  0
  9 13  1  0  0  0  0
 13 14  1  0  0  0  0
 14 15  1  0  0  0  0
 15 16  1  0  0  0  0
 16 17  2  0  0  0  0
 17 18  1  0  0  0  0
 18 19  1  0  0  0  0
 19 20  1  0  0  0  0
 20 21  1  0  0  0  0
 21 22  2  0  0  0  0
 22 23  1  0  0  0  0
 23 24  2  0  0  0  0
 24 25  1  0  0  0  0
 25 26  2  0  0  0  0
 26 21  1  0  0  0  0
  4 27  1  0  0  0  0
 23 27  1  0  0  0  0
 26 28  1  0  0  0  0
 28 29  1  0  0  0  0
 29 30  1  0  0  0  0
 30 31  1  0  0  0  0
 31 32  1  0  0  0  0
 32 33  1  0  0  0  0
 33 34  1  0  0  0  0
 34 35  1  0  0  0  0
 35 31  1  0  0  0  0
M  END
>  <Mol_ID> (394)
2625

>  <Formula> (394)
C28H32N4O3

>  <MolWeight> (394)
472.57868

>  <Cat> (394)
S8057

>  <Name> (394)
Pacritinib (SB1518)

>  <Synonyms> (394)
N/A

>  <Target> (394)
JAK

>  <Form> (394)
Free Base

>  <CAS> (394)
937272-79-2

>  <URL> (394)
http://www.selleckchem.com/products/pacritinib-sb1518.html

$$$$
Sorafenib.cdx
csChFnd80/05071909292D

 32 34  0  0  0  0  0  0  0  0999 V2000
   12.1320    7.7443    0.0000 C   0  0  0  0  0  0  0  0  0  0  0  0
   13.3445    8.4443    0.0000 C   0  0  0  0  0  0  0  0  0  0  0  0
    7.2687    7.7449    0.0000 C   0  0  0  0  0  0  0  0  0  0  0  0
    3.6483    1.4033    0.0000 C   0  0  0  0  0  0  0  0  0  0  0  0
    2.4359    2.1033    0.0000 C   0  0  0  0  0  0  0  0  0  0  0  0
    8.4812    8.4449    0.0000 N   0  0  0  0  0  0  0  0  0  0  0  0
    2.4377    3.5168    0.0000 C   0  0  0  0  0  0  0  0  0  0  0  0
   12.1305    6.3361    0.0000 C   0  0  0  0  0  0  0  0  0  0  0  0
    6.0563    8.4449    0.0000 N   0  0  0  0  0  0  0  0  0  0  0  0
   10.9197    8.4591    0.0000 C   0  0  0  0  0  0  0  0  0  0  0  0
    1.2127    1.4085    0.0000 N   0  0  0  0  0  0  0  0  0  0  0  0
    1.2127    4.2291    0.0000 C   0  0  0  0  0  0  0  0  0  0  0  0
    9.6936    7.7449    0.0000 C   0  0  0  0  0  0  0  0  0  0  0  0
    7.2687    6.3449    0.0000 O   0  0  0  0  0  0  0  0  0  0  0  0
    3.6483    0.0000    0.0000 O   0  0  0  0  0  0  0  0  0  0  0  0
    1.2127    5.6291    0.0000 O   0  0  0  0  0  0  0  0  0  0  0  0
   14.0459    7.2294    0.0000 F   0  0  0  0  0  0  0  0  0  0  0  0
   12.6459    9.6543    0.0000 F   0  0  0  0  0  0  0  0  0  0  0  0
   14.5569    9.1443    0.0000 F   0  0  0  0  0  0  0  0  0  0  0  0
   10.9197    5.6383    0.0000 C   0  0  0  0  0  0  0  0  0  0  0  0
    4.8579    2.1016    0.0000 N   0  0  0  0  0  0  0  0  0  0  0  0
    4.8439    7.7449    0.0000 C   0  0  0  0  0  0  0  0  0  0  0  0
    2.4251    6.3291    0.0000 C   0  0  0  0  0  0  0  0  0  0  0  0
    0.0018    2.1065    0.0000 C   0  0  0  0  0  0  0  0  0  0  0  0
    9.6947    6.3363    0.0000 C   0  0  0  0  0  0  0  0  0  0  0  0
   13.3429    5.6361    0.0000 Cl  0  0  0  0  0  0  0  0  0  0  0  0
    0.0000    3.5199    0.0000 C   0  0  0  0  0  0  0  0  0  0  0  0
    3.6301    8.4523    0.0000 C   0  0  0  0  0  0  0  0  0  0  0  0
    4.8439    6.3203    0.0000 C   0  0  0  0  0  0  0  0  0  0  0  0
    3.6329    5.6365    0.0000 C   0  0  0  0  0  0  0  0  0  0  0  0
    2.4220    7.7449    0.0000 C   0  0  0  0  0  0  0  0  0  0  0  0
    4.8579    3.5000    0.0000 C   0  0  0  0  0  0  0  0  0  0  0  0
  2  1  1  0  0  0  0
  8  1  1  0  0  0  0
 10  1  2  0  0  0  0
 17  2  1  0  0  0  0
 18  2  1  0  0  0  0
 19  2  1  0  0  0  0
  3  6  1  0  0  0  0
  9  3  1  0  0  0  0
 14  3  2  0  0  0  0
  4  5  1  0  0  0  0
 15  4  2  0  0  0  0
 21  4  1  0  0  0  0
  5  7  2  0  0  0  0
  5 11  1  0  0  0  0
  6 13  1  0  0  0  0
  7 12  1  0  0  0  0
 20  8  2  0  0  0  0
 26  8  1  0  0  0  0
 22  9  1  0  0  0  0
 13 10  1  0  0  0  0
 11 24  2  0  0  0  0
 12 16  1  0  0  0  0
 27 12  2  0  0  0  0
 25 13  2  0  0  0  0
 16 23  1  0  0  0  0
 25 20  1  0  0  0  0
 32 21  1  0  0  0  0
 28 22  1  0  0  0  0
 29 22  2  0  0  0  0
 23 30  2  0  0  0  0
 23 31  1  0  0  0  0
 24 27  1  0  0  0  0
 31 28  2  0  0  0  0
 30 29  1  0  0  0  0
M  END
>  <Mol_ID> (395)
2628

>  <Formula> (395)
C21H16ClF3N4O3

>  <MolWeight> (395)
464.8249496

>  <Cat> (395)
S7397

>  <Name> (395)
Sorafenib

>  <Synonyms> (395)
BAY 43-9006

>  <Target> (395)
Raf

>  <Form> (395)
Free Base

>  <CAS> (395)
284461-73-0

>  <URL> (395)
http://www.selleckchem.com/products/sorafenib.html

$$$$
PF-562271.cdx
csChFnd80/05071909292D

 36 38  0  0  0  0  0  0  0  0999 V2000
    1.2124    6.8543    0.0000 C   0  0  0  0  0  0  0  0  0  0  0  0
    1.2124    5.4543    0.0000 N   0  0  0  0  0  0  0  0  0  0  0  0
    2.4249    4.7543    0.0000 C   0  0  0  0  0  0  0  0  0  0  0  0
    3.6373    5.4543    0.0000 C   0  0  0  0  0  0  0  0  0  0  0  0
    3.6373    6.8543    0.0000 C   0  0  0  0  0  0  0  0  0  0  0  0
    2.4249    7.5543    0.0000 C   0  0  0  0  0  0  0  0  0  0  0  0
    2.4249    3.3543    0.0000 N   0  0  0  0  0  0  0  0  0  0  0  0
    3.6373    2.6543    0.0000 C   0  0  0  0  0  0  0  0  0  0  0  0
    1.2124    2.6543    0.0000 S   0  0  0  0  0  0  0  0  0  0  0  0
    0.0000    3.3543    0.0000 O   0  0  0  0  0  0  0  0  0  0  0  0
    1.2124    1.2543    0.0000 O   0  0  0  0  0  0  0  0  0  0  0  0
    1.2124    4.0543    0.0000 C   0  0  0  0  0  0  0  0  0  0  0  0
    4.8497    4.7543    0.0000 C   0  0  0  0  0  0  0  0  0  0  0  0
    6.0622    5.4543    0.0000 N   0  0  0  0  0  0  0  0  0  0  0  0
    7.2746    4.7543    0.0000 C   0  0  0  0  0  0  0  0  0  0  0  0
    7.2746    3.3543    0.0000 C   0  0  0  0  0  0  0  0  0  0  0  0
    8.4870    2.6543    0.0000 C   0  0  0  0  0  0  0  0  0  0  0  0
    9.6995    3.3543    0.0000 N   0  0  0  0  0  0  0  0  0  0  0  0
    9.6995    4.7543    0.0000 C   0  0  0  0  0  0  0  0  0  0  0  0
    8.4870    5.4543    0.0000 N   0  0  0  0  0  0  0  0  0  0  0  0
    6.0622    2.6543    0.0000 C   0  0  0  0  0  0  0  0  0  0  0  0
    4.8497    3.3543    0.0000 F   0  0  0  0  0  0  0  0  0  0  0  0
    6.0622    1.2543    0.0000 F   0  0  0  0  0  0  0  0  0  0  0  0
    6.0622    4.0543    0.0000 F   0  0  0  0  0  0  0  0  0  0  0  0
   10.9119    5.4543    0.0000 N   0  0  0  0  0  0  0  0  0  0  0  0
   12.1244    4.7543    0.0000 C   0  0  0  0  0  0  0  0  0  0  0  0
   12.1244    3.3543    0.0000 C   0  0  0  0  0  0  0  0  0  0  0  0
   13.3368    2.6543    0.0000 C   0  0  0  0  0  0  0  0  0  0  0  0
   14.5492    3.3543    0.0000 C   0  0  0  0  0  0  0  0  0  0  0  0
   14.5492    4.7543    0.0000 C   0  0  0  0  0  0  0  0  0  0  0  0
   13.3368    5.4543    0.0000 C   0  0  0  0  0  0  0  0  0  0  0  0
   15.8807    2.9217    0.0000 N   0  0  0  0  0  0  0  0  0  0  0  0
   16.7036    4.0543    0.0000 C   0  0  0  0  0  0  0  0  0  0  0  0
   15.8807    5.1870    0.0000 C   0  0  0  0  0  0  0  0  0  0  0  0
   18.1036    4.0543    0.0000 O   0  0  0  0  0  0  0  0  0  0  0  0
    8.7443    0.0000    0.0000 Cl  0  0  0  0  0  0  0  0  0  0  0  0
  1  2  2  0  0  0  0
  2  3  1  0  0  0  0
  3  4  2  0  0  0  0
  4  5  1  0  0  0  0
  5  6  2  0  0  0  0
  6  1  1  0  0  0  0
  3  7  1  0  0  0  0
  7  8  1  0  0  0  0
  7  9  1  0  0  0  0
  9 10  2  0  0  0  0
  9 11  2  0  0  0  0
  9 12  1  0  0  0  0
  4 13  1  0  0  0  0
 13 14  1  0  0  0  0
 14 15  1  0  0  0  0
 15 16  2  0  0  0  0
 16 17  1  0  0  0  0
 17 18  2  0  0  0  0
 18 19  1  0  0  0  0
 19 20  2  0  0  0  0
 20 15  1  0  0  0  0
 16 21  1  0  0  0  0
 21 22  1  0  0  0  0
 21 23  1  0  0  0  0
 21 24  1  0  0  0  0
 19 25  1  0  0  0  0
 25 26  1  0  0  0  0
 26 27  2  0  0  0  0
 27 28  1  0  0  0  0
 28 29  2  0  0  0  0
 29 30  1  0  0  0  0
 30 31  2  0  0  0  0
 31 26  1  0  0  0  0
 29 32  1  0  0  0  0
 32 33  1  0  0  0  0
 33 34  1  0  0  0  0
 34 30  1  0  0  0  0
 33 35  2  0  0  0  0
M  END
>  <Mol_ID> (396)
2630

>  <Formula> (396)
C21H21ClF3N7O3S

>  <MolWeight> (396)
543.9497496

>  <Cat> (396)
S7357

>  <Name> (396)
PF-562271 HCl

>  <Synonyms> (396)
N/A

>  <Target> (396)
FAK

>  <Form> (396)
Hydrochloride

>  <URL> (396)
http://www.selleckchem.com/products/pf-562271-hcl.html

$$$$
TG003.cdx
csChFnd80/05071909292D

 17 18  0  0  0  0  0  0  0  0999 V2000
    4.8497    3.1249    0.0000 C   0  0  0  0  0  0  0  0  0  0  0  0
    6.1812    3.5575    0.0000 N   0  0  0  0  0  0  0  0  0  0  0  0
    4.8497    1.7249    0.0000 C   0  0  0  0  0  0  0  0  0  0  0  0
    3.6373    3.8249    0.0000 C   0  0  0  0  0  0  0  0  0  0  0  0
    7.0041    2.4249    0.0000 C   0  0  0  0  0  0  0  0  0  0  0  0
    6.6138    4.8890    0.0000 C   0  0  0  0  0  0  0  0  0  0  0  0
    6.1812    1.2922    0.0000 S   0  0  0  0  0  0  0  0  0  0  0  0
    3.6373    1.0249    0.0000 C   0  0  0  0  0  0  0  0  0  0  0  0
    2.4249    3.1249    0.0000 C   0  0  0  0  0  0  0  0  0  0  0  0
    8.4041    2.4249    0.0000 C   0  0  0  0  0  0  0  0  0  0  0  0
    2.4249    1.7249    0.0000 C   0  0  0  0  0  0  0  0  0  0  0  0
    1.2124    3.8249    0.0000 O   0  0  0  0  0  0  0  0  0  0  0  0
    9.1041    1.2124    0.0000 C   0  0  0  0  0  0  0  0  0  0  0  0
    0.0000    3.1249    0.0000 C   0  0  0  0  0  0  0  0  0  0  0  0
   10.5041    1.2124    0.0000 C   0  0  0  0  0  0  0  0  0  0  0  0
    8.4041    0.0000    0.0000 O   0  0  0  0  0  0  0  0  0  0  0  0
    5.6771    5.9294    0.0000 C   0  0  0  0  0  0  0  0  0  0  0  0
  1  2  1  0  0  0  0
  1  3  2  0  0  0  0
  1  4  1  0  0  0  0
  2  5  1  0  0  0  0
  2  6  1  0  0  0  0
  3  7  1  0  0  0  0
  3  8  1  0  0  0  0
  4  9  2  0  0  0  0
  5 10  2  0  0  0  0
  5  7  1  0  0  0  0
  8 11  2  0  0  0  0
  9 12  1  0  0  0  0
  9 11  1  0  0  0  0
 10 13  1  0  0  0  0
 12 14  1  0  0  0  0
 13 15  1  0  0  0  0
 13 16  2  0  0  0  0
  6 17  1  0  0  0  0
M  END
>  <Mol_ID> (397)
2632

>  <Formula> (397)
C13H15NO2S

>  <MolWeight> (397)
249.3287

>  <Cat> (397)
S7320

>  <Name> (397)
TG003

>  <Synonyms> (397)
N/A

>  <Target> (397)
CDK

>  <Form> (397)
Free Base

>  <CAS> (397)
300801-52-9

>  <URL> (397)
http://www.selleckchem.com/products/tg003.html

$$$$
WZ4003.cdx
csChFnd80/05071909292D

 35 38  0  0  0  0  0  0  0  0999 V2000
    4.8497   11.9000    0.0000 N   0  0  0  0  0  0  0  0  0  0  0  0
    4.8497   10.5000    0.0000 C   0  0  0  0  0  0  0  0  0  0  0  0
    6.0622    9.8000    0.0000 N   0  0  0  0  0  0  0  0  0  0  0  0
    7.2746   10.5000    0.0000 C   0  0  0  0  0  0  0  0  0  0  0  0
    7.2746   11.9000    0.0000 C   0  0  0  0  0  0  0  0  0  0  0  0
    6.0622   12.6000    0.0000 C   0  0  0  0  0  0  0  0  0  0  0  0
    3.6373    9.8000    0.0000 N   0  0  0  0  0  0  0  0  0  0  0  0
    3.6373    8.4000    0.0000 C   0  0  0  0  0  0  0  0  0  0  0  0
    2.4249    7.7000    0.0000 C   0  0  0  0  0  0  0  0  0  0  0  0
    2.4249    6.3000    0.0000 C   0  0  0  0  0  0  0  0  0  0  0  0
    3.6373    5.6000    0.0000 C   0  0  0  0  0  0  0  0  0  0  0  0
    4.8497    6.3000    0.0000 C   0  0  0  0  0  0  0  0  0  0  0  0
    4.8497    7.7000    0.0000 C   0  0  0  0  0  0  0  0  0  0  0  0
    1.2124    8.4000    0.0000 O   0  0  0  0  0  0  0  0  0  0  0  0
    0.0000    7.7000    0.0000 C   0  0  0  0  0  0  0  0  0  0  0  0
    3.6373    4.2000    0.0000 N   0  0  0  0  0  0  0  0  0  0  0  0
    2.4249    3.5000    0.0000 C   0  0  0  0  0  0  0  0  0  0  0  0
    2.4249    2.1000    0.0000 C   0  0  0  0  0  0  0  0  0  0  0  0
    3.6373    1.4000    0.0000 N   0  0  0  0  0  0  0  0  0  0  0  0
    4.8497    2.1000    0.0000 C   0  0  0  0  0  0  0  0  0  0  0  0
    4.8497    3.5000    0.0000 C   0  0  0  0  0  0  0  0  0  0  0  0
    3.6373    0.0000    0.0000 C   0  0  0  0  0  0  0  0  0  0  0  0
    8.4871   12.6000    0.0000 Cl  0  0  0  0  0  0  0  0  0  0  0  0
    8.4871    9.8000    0.0000 O   0  0  0  0  0  0  0  0  0  0  0  0
    9.6995   10.5000    0.0000 C   0  0  0  0  0  0  0  0  0  0  0  0
   10.9119    9.8000    0.0000 C   0  0  0  0  0  0  0  0  0  0  0  0
   12.1244   10.5000    0.0000 C   0  0  0  0  0  0  0  0  0  0  0  0
   12.1244   11.9000    0.0000 C   0  0  0  0  0  0  0  0  0  0  0  0
   10.9119   12.6000    0.0000 C   0  0  0  0  0  0  0  0  0  0  0  0
    9.6995   11.9000    0.0000 C   0  0  0  0  0  0  0  0  0  0  0  0
   13.3368    9.8000    0.0000 N   0  0  0  0  0  0  0  0  0  0  0  0
   14.5492   10.5000    0.0000 C   0  0  0  0  0  0  0  0  0  0  0  0
   15.7617    9.8000    0.0000 C   0  0  0  0  0  0  0  0  0  0  0  0
   14.5492   11.9000    0.0000 O   0  0  0  0  0  0  0  0  0  0  0  0
   16.9741   10.5000    0.0000 C   0  0  0  0  0  0  0  0  0  0  0  0
  1  2  2  0  0  0  0
  2  3  1  0  0  0  0
  3  4  2  0  0  0  0
  4  5  1  0  0  0  0
  5  6  2  0  0  0  0
  6  1  1  0  0  0  0
  2  7  1  0  0  0  0
  7  8  1  0  0  0  0
  8  9  2  0  0  0  0
  9 10  1  0  0  0  0
 10 11  2  0  0  0  0
 11 12  1  0  0  0  0
 12 13  2  0  0  0  0
 13  8  1  0  0  0  0
  9 14  1  0  0  0  0
 14 15  1  0  0  0  0
 11 16  1  0  0  0  0
 16 17  1  0  0  0  0
 17 18  1  0  0  0  0
 18 19  1  0  0  0  0
 19 20  1  0  0  0  0
 20 21  1  0  0  0  0
 21 16  1  0  0  0  0
 19 22  1  0  0  0  0
  5 23  1  0  0  0  0
  4 24  1  0  0  0  0
 24 25  1  0  0  0  0
 25 26  2  0  0  0  0
 26 27  1  0  0  0  0
 27 28  2  0  0  0  0
 28 29  1  0  0  0  0
 29 30  2  0  0  0  0
 30 25  1  0  0  0  0
 27 31  1  0  0  0  0
 31 32  1  0  0  0  0
 32 33  1  0  0  0  0
 32 34  2  0  0  0  0
 33 35  1  0  0  0  0
M  END
>  <Mol_ID> (398)
2633

>  <Formula> (398)
C25H29ClN6O3

>  <MolWeight> (398)
496.98916

>  <Cat> (398)
S7317

>  <Name> (398)
WZ4003

>  <Synonyms> (398)
N/A

>  <Target> (398)
AMPK

>  <Form> (398)
Free Base

>  <CAS> (398)
1214265-58-3

>  <URL> (398)
http://www.selleckchem.com/products/wz4003.html

$$$$
ID-8.cdx
csChFnd80/05071909292D

 22 24  0  0  0  0  0  0  0  0999 V2000
    6.0664    2.8064    0.0000 N   0  0  0  0  0  0  0  0  0  0  0  0
    7.3192    2.2491    0.0000 C   0  0  0  0  0  0  0  0  0  0  0  0
    8.2735    3.3035    0.0000 C   0  0  0  0  0  0  0  0  0  0  0  0
    7.5637    4.5103    0.0000 C   0  0  0  0  0  0  0  0  0  0  0  0
    7.9855    5.8452    0.0000 C   0  0  0  0  0  0  0  0  0  0  0  0
    7.0403    6.8780    0.0000 C   0  0  0  0  0  0  0  0  0  0  0  0
    5.6927    6.5945    0.0000 C   0  0  0  0  0  0  0  0  0  0  0  0
    5.2515    5.2409    0.0000 C   0  0  0  0  0  0  0  0  0  0  0  0
    6.1967    4.2081    0.0000 C   0  0  0  0  0  0  0  0  0  0  0  0
    4.7028    7.5844    0.0000 O   0  0  0  0  0  0  0  0  0  0  0  0
    9.6662    3.1611    0.0000 N   0  3  0  0  0  0  0  0  0  0  0  0
   10.2392    1.8837    0.0000 O   0  0  0  0  0  0  0  0  0  0  0  0
   10.4860    4.2960    0.0000 O   0  5  0  0  0  0  0  0  0  0  0  0
    7.6078    0.8792    0.0000 C   0  0  0  0  0  0  0  0  0  0  0  0
    4.8540    2.1064    0.0000 C   0  0  0  0  0  0  0  0  0  0  0  0
    4.8628    0.7089    0.0000 C   0  0  0  0  0  0  0  0  0  0  0  0
    3.6555    0.0000    0.0000 C   0  0  0  0  0  0  0  0  0  0  0  0
    2.4249    0.7135    0.0000 C   0  0  0  0  0  0  0  0  0  0  0  0
    2.4277    2.0911    0.0000 C   0  0  0  0  0  0  0  0  0  0  0  0
    3.6355    2.8008    0.0000 C   0  0  0  0  0  0  0  0  0  0  0  0
    1.2124    0.0135    0.0000 O   0  0  0  0  0  0  0  0  0  0  0  0
    0.0000    0.7135    0.0000 C   0  0  0  0  0  0  0  0  0  0  0  0
  1  2  1  0  0  0  0
  2  3  2  0  0  0  0
  3  4  1  0  0  0  0
  4  5  1  0  0  0  0
  5  6  2  0  0  0  0
  6  7  1  0  0  0  0
  7  8  2  0  0  0  0
  8  9  1  0  0  0  0
  1  9  1  0  0  0  0
  4  9  2  0  0  0  0
  7 10  1  0  0  0  0
 11 12  2  0  0  0  0
 11 13  1  0  0  0  0
  3 11  1  0  0  0  0
  2 14  1  0  0  0  0
 15 16  1  0  0  0  0
 16 17  2  0  0  0  0
 17 18  1  0  0  0  0
 18 19  2  0  0  0  0
 19 20  1  0  0  0  0
 15 20  2  0  0  0  0
 21 22  1  0  0  0  0
 18 21  1  0  0  0  0
  1 15  1  0  0  0  0
M  END
>  <Mol_ID> (399)
2634

>  <Formula> (399)
C16H14N2O4

>  <MolWeight> (399)
298.29336

>  <Cat> (399)
S7327

>  <Name> (399)
ID-8

>  <Synonyms> (399)
N/A

>  <Target> (399)
DYRK

>  <Form> (399)
Free Base

>  <CAS> (399)
147591-46-6

>  <URL> (399)
http://www.selleckchem.com/products/id-8.html

$$$$
ASP3026   structure.cdx
csChFnd80/05071909292D

 41 45  0  0  0  0  0  0  0  0999 V2000
    2.4165   11.8854    0.0000 C   0  0  0  0  0  0  0  0  0  0  0  0
    2.4165   10.4854    0.0000 C   0  0  0  0  0  0  0  0  0  0  0  0
    3.6289    9.7854    0.0000 C   0  0  0  0  0  0  0  0  0  0  0  0
    4.8413   10.4854    0.0000 C   0  0  0  0  0  0  0  0  0  0  0  0
    4.8413   11.8854    0.0000 C   0  0  0  0  0  0  0  0  0  0  0  0
    3.6289   12.5854    0.0000 C   0  0  0  0  0  0  0  0  0  0  0  0
    3.6289   13.9806    0.0000 N   0  0  0  0  0  0  0  0  0  0  0  0
    3.6289    8.3903    0.0000 N   0  0  0  0  0  0  0  0  0  0  0  0
    1.2082   12.5830    0.0000 O   0  0  0  0  0  0  0  0  0  0  0  0
    0.0000   11.8854    0.0000 C   0  0  0  0  0  0  0  0  0  0  0  0
    2.4165    7.6903    0.0000 C   0  0  0  0  0  0  0  0  0  0  0  0
    2.4165    6.2903    0.0000 C   0  0  0  0  0  0  0  0  0  0  0  0
    3.6289    5.5903    0.0000 C   0  0  0  0  0  0  0  0  0  0  0  0
    4.8413    6.2903    0.0000 C   0  0  0  0  0  0  0  0  0  0  0  0
    4.8413    7.6903    0.0000 C   0  0  0  0  0  0  0  0  0  0  0  0
    3.6289    4.1951    0.0000 N   0  0  0  0  0  0  0  0  0  0  0  0
    2.4165    3.4951    0.0000 C   0  0  0  0  0  0  0  0  0  0  0  0
    2.4165    2.0951    0.0000 C   0  0  0  0  0  0  0  0  0  0  0  0
    3.6289    1.3951    0.0000 N   0  0  0  0  0  0  0  0  0  0  0  0
    4.8413    2.0951    0.0000 C   0  0  0  0  0  0  0  0  0  0  0  0
    4.8413    3.4951    0.0000 C   0  0  0  0  0  0  0  0  0  0  0  0
    3.6289    0.0000    0.0000 C   0  0  0  0  0  0  0  0  0  0  0  0
    4.8371   14.6781    0.0000 C   0  0  0  0  0  0  0  0  0  0  0  0
    6.0496   13.9781    0.0000 N   0  0  0  0  0  0  0  0  0  0  0  0
    7.2620   14.6781    0.0000 C   0  0  0  0  0  0  0  0  0  0  0  0
    7.2620   16.0781    0.0000 N   0  0  0  0  0  0  0  0  0  0  0  0
    6.0496   16.7781    0.0000 C   0  0  0  0  0  0  0  0  0  0  0  0
    4.8371   16.0781    0.0000 N   0  0  0  0  0  0  0  0  0  0  0  0
    8.4702   13.9806    0.0000 N   0  0  0  0  0  0  0  0  0  0  0  0
    8.4702   12.5854    0.0000 C   0  0  0  0  0  0  0  0  0  0  0  0
    7.2578   11.8854    0.0000 C   0  0  0  0  0  0  0  0  0  0  0  0
    7.2578   10.4854    0.0000 C   0  0  0  0  0  0  0  0  0  0  0  0
    8.4702    9.7854    0.0000 C   0  0  0  0  0  0  0  0  0  0  0  0
    9.6826   10.4854    0.0000 C   0  0  0  0  0  0  0  0  0  0  0  0
    9.6826   11.8854    0.0000 C   0  0  0  0  0  0  0  0  0  0  0  0
   10.8909   12.5830    0.0000 S   0  0  0  0  0  0  0  0  0  0  0  0
   10.8909   13.9781    0.0000 O   0  0  0  0  0  0  0  0  0  0  0  0
   12.0991   11.8854    0.0000 C   0  0  0  0  0  0  0  0  0  0  0  0
   12.0991   13.2806    0.0000 O   0  0  0  0  0  0  0  0  0  0  0  0
   13.3073   12.5830    0.0000 C   0  0  0  0  0  0  0  0  0  0  0  0
   12.0991   10.4903    0.0000 C   0  0  0  0  0  0  0  0  0  0  0  0
  1  2  2  0  0  0  0
  2  3  1  0  0  0  0
  3  4  2  0  0  0  0
  4  5  1  0  0  0  0
  5  6  2  0  0  0  0
  6  1  1  0  0  0  0
  6  7  1  0  0  0  0
  3  8  1  0  0  0  0
  1  9  1  0  0  0  0
  9 10  1  0  0  0  0
  8 11  1  0  0  0  0
 11 12  1  0  0  0  0
 12 13  1  0  0  0  0
 13 14  1  0  0  0  0
 14 15  1  0  0  0  0
 15  8  1  0  0  0  0
 13 16  1  0  0  0  0
 16 17  1  0  0  0  0
 17 18  1  0  0  0  0
 18 19  1  0  0  0  0
 19 20  1  0  0  0  0
 20 21  1  0  0  0  0
 21 16  1  0  0  0  0
 19 22  1  0  0  0  0
  7 23  1  0  0  0  0
 23 24  2  0  0  0  0
 24 25  1  0  0  0  0
 25 26  2  0  0  0  0
 26 27  1  0  0  0  0
 27 28  2  0  0  0  0
 28 23  1  0  0  0  0
 25 29  1  0  0  0  0
 29 30  1  0  0  0  0
 30 31  2  0  0  0  0
 31 32  1  0  0  0  0
 32 33  2  0  0  0  0
 33 34  1  0  0  0  0
 34 35  2  0  0  0  0
 35 30  1  0  0  0  0
 35 36  1  0  0  0  0
 36 37  2  0  0  0  0
 36 38  1  0  0  0  0
 36 39  2  0  0  0  0
 38 40  1  0  0  0  0
 38 41  1  0  0  0  0
M  END
>  <Mol_ID> (400)
2638

>  <Formula> (400)
C29H40N8O3S

>  <MolWeight> (400)
580.7447

>  <Cat> (400)
S8054

>  <Name> (400)
ASP3026

>  <Synonyms> (400)
N/A

>  <Target> (400)
ALK

>  <Form> (400)
Free Base

>  <CAS> (400)
1097917-15-1

>  <URL> (400)
http://www.selleckchem.com/products/asp3026.html

$$$$
AZ20.cdx
csChFnd80/05071909292D

 29 33  0  0  0  0  0  0  0  0999 V2000
    3.6373    4.2000    0.0000 C   0  0  0  0  0  0  0  0  0  0  0  0
    3.6373    2.8000    0.0000 C   0  0  0  0  0  0  0  0  0  0  0  0
    4.8497    2.1000    0.0000 N   0  0  0  0  0  0  0  0  0  0  0  0
    6.0622    2.8000    0.0000 C   0  0  0  0  0  0  0  0  0  0  0  0
    6.0622    4.2000    0.0000 N   0  0  0  0  0  0  0  0  0  0  0  0
    4.8497    4.9000    0.0000 C   0  0  0  0  0  0  0  0  0  0  0  0
    2.4249    2.1000    0.0000 C   0  0  0  0  0  0  0  0  0  0  0  0
    1.2124    2.8000    0.0000 S   0  0  0  0  0  0  0  0  0  0  0  0
    0.0000    2.1000    0.0000 C   0  0  0  0  0  0  0  0  0  0  0  0
    0.2225    3.7900    0.0000 O   0  0  0  0  0  0  0  0  0  0  0  0
    2.2024    3.7900    0.0000 O   0  0  0  0  0  0  0  0  0  0  0  0
    1.7249    0.8876    0.0000 C   0  0  0  0  0  0  0  0  0  0  0  0
    3.1249    0.8876    0.0000 C   0  0  0  0  0  0  0  0  0  0  0  0
    4.8497    6.3000    0.0000 N   0  0  0  0  0  0  0  0  0  0  0  0
    6.0622    7.0000    0.0000 C   0  0  1  0  0  0  0  0  0  0  0  0
    6.0622    8.4000    0.0000 C   0  0  0  0  0  0  0  0  0  0  0  0
    4.8497    9.1000    0.0000 O   0  0  0  0  0  0  0  0  0  0  0  0
    3.6373    8.4000    0.0000 C   0  0  0  0  0  0  0  0  0  0  0  0
    3.6373    7.0000    0.0000 C   0  0  0  0  0  0  0  0  0  0  0  0
    7.2746    2.1000    0.0000 C   0  0  0  0  0  0  0  0  0  0  0  0
    7.2746    0.7000    0.0000 C   0  0  0  0  0  0  0  0  0  0  0  0
    8.4871    0.0000    0.0000 C   0  0  0  0  0  0  0  0  0  0  0  0
    9.6995    0.7000    0.0000 C   0  0  0  0  0  0  0  0  0  0  0  0
    9.6995    2.1000    0.0000 C   0  0  0  0  0  0  0  0  0  0  0  0
    8.4871    2.8000    0.0000 C   0  0  0  0  0  0  0  0  0  0  0  0
   10.7399    3.0368    0.0000 N   0  0  0  0  0  0  0  0  0  0  0  0
   10.1705    4.3157    0.0000 C   0  0  0  0  0  0  0  0  0  0  0  0
    8.7781    4.1694    0.0000 C   0  0  0  0  0  0  0  0  0  0  0  0
    7.2746    6.3000    0.0000 C   0  0  0  0  0  0  0  0  0  0  0  0
  1  2  2  0  0  0  0
  2  3  1  0  0  0  0
  3  4  2  0  0  0  0
  4  5  1  0  0  0  0
  5  6  2  0  0  0  0
  6  1  1  0  0  0  0
  2  7  1  0  0  0  0
  7  8  1  0  0  0  0
  8  9  1  0  0  0  0
  8 10  2  0  0  0  0
  8 11  2  0  0  0  0
  7 12  1  0  0  0  0
 12 13  1  0  0  0  0
 13  7  1  0  0  0  0
  6 14  1  0  0  0  0
 14 15  1  0  0  0  0
 15 16  1  0  0  0  0
 16 17  1  0  0  0  0
 17 18  1  0  0  0  0
 18 19  1  0  0  0  0
 19 14  1  0  0  0  0
  4 20  1  0  0  0  0
 20 21  2  0  0  0  0
 21 22  1  0  0  0  0
 22 23  2  0  0  0  0
 23 24  1  0  0  0  0
 24 25  2  0  0  0  0
 25 20  1  0  0  0  0
 24 26  1  0  0  0  0
 26 27  1  0  0  0  0
 27 28  2  0  0  0  0
 28 25  1  0  0  0  0
 15 29  1  1  0  0  0
M  END
>  <Mol_ID> (401)
2643

>  <Formula> (401)
C21H24N4O3S

>  <MolWeight> (401)
412.50526

>  <Cat> (401)
S7050

>  <Name> (401)
AZ20

>  <Synonyms> (401)
N/A

>  <Target> (401)
ATM/ATR

>  <Form> (401)
Free Base

>  <CAS> (401)
1233339-22-4

>  <URL> (401)
http://www.selleckchem.com/products/az20.html

$$$$
CNX-774.cdx
csChFnd80/05071909292D

 37 40  0  0  0  0  0  0  0  0999 V2000
    3.6373   16.8000    0.0000 C   0  0  0  0  0  0  0  0  0  0  0  0
    3.6373   15.4000    0.0000 C   0  0  0  0  0  0  0  0  0  0  0  0
    4.8497   14.7000    0.0000 C   0  0  0  0  0  0  0  0  0  0  0  0
    6.0622   15.4000    0.0000 C   0  0  0  0  0  0  0  0  0  0  0  0
    6.0622   16.8000    0.0000 C   0  0  0  0  0  0  0  0  0  0  0  0
    4.8497   17.5000    0.0000 C   0  0  0  0  0  0  0  0  0  0  0  0
    2.4249   14.7000    0.0000 N   0  0  0  0  0  0  0  0  0  0  0  0
    2.4249   13.3000    0.0000 C   0  0  0  0  0  0  0  0  0  0  0  0
    1.2124   12.6000    0.0000 C   0  0  0  0  0  0  0  0  0  0  0  0
    1.2124   11.2000    0.0000 C   0  0  0  0  0  0  0  0  0  0  0  0
    2.4249   10.5000    0.0000 N   0  0  0  0  0  0  0  0  0  0  0  0
    3.6373   11.2000    0.0000 C   0  0  0  0  0  0  0  0  0  0  0  0
    3.6373   12.6000    0.0000 N   0  0  0  0  0  0  0  0  0  0  0  0
    0.0000   13.3000    0.0000 F   0  0  0  0  0  0  0  0  0  0  0  0
    4.8497   10.5000    0.0000 N   0  0  0  0  0  0  0  0  0  0  0  0
    4.8497    9.1000    0.0000 C   0  0  0  0  0  0  0  0  0  0  0  0
    3.6373    8.4000    0.0000 C   0  0  0  0  0  0  0  0  0  0  0  0
    3.6373    7.0000    0.0000 C   0  0  0  0  0  0  0  0  0  0  0  0
    4.8497    6.3000    0.0000 C   0  0  0  0  0  0  0  0  0  0  0  0
    6.0622    7.0000    0.0000 C   0  0  0  0  0  0  0  0  0  0  0  0
    6.0622    8.4000    0.0000 C   0  0  0  0  0  0  0  0  0  0  0  0
    4.8497    4.9000    0.0000 O   0  0  0  0  0  0  0  0  0  0  0  0
    7.2746   14.7000    0.0000 N   0  0  0  0  0  0  0  0  0  0  0  0
    8.4870   15.4000    0.0000 C   0  0  0  0  0  0  0  0  0  0  0  0
    9.6995   14.7000    0.0000 C   0  0  0  0  0  0  0  0  0  0  0  0
    8.4870   16.8000    0.0000 O   0  0  0  0  0  0  0  0  0  0  0  0
   10.9119   15.4000    0.0000 C   0  0  0  0  0  0  0  0  0  0  0  0
    3.6373    4.2000    0.0000 C   0  0  0  0  0  0  0  0  0  0  0  0
    2.4249    4.9000    0.0000 C   0  0  0  0  0  0  0  0  0  0  0  0
    1.2124    4.2000    0.0000 C   0  0  0  0  0  0  0  0  0  0  0  0
    1.2124    2.8000    0.0000 N   0  0  0  0  0  0  0  0  0  0  0  0
    2.4249    2.1000    0.0000 C   0  0  0  0  0  0  0  0  0  0  0  0
    3.6373    2.8000    0.0000 C   0  0  0  0  0  0  0  0  0  0  0  0
    2.4249    0.7000    0.0000 C   0  0  0  0  0  0  0  0  0  0  0  0
    3.6373    0.0000    0.0000 N   0  0  0  0  0  0  0  0  0  0  0  0
    1.2124    0.0000    0.0000 O   0  0  0  0  0  0  0  0  0  0  0  0
    4.8497    0.7000    0.0000 C   0  0  0  0  0  0  0  0  0  0  0  0
  1  2  2  0  0  0  0
  2  3  1  0  0  0  0
  3  4  2  0  0  0  0
  4  5  1  0  0  0  0
  5  6  2  0  0  0  0
  6  1  1  0  0  0  0
  2  7  1  0  0  0  0
  7  8  1  0  0  0  0
  8  9  2  0  0  0  0
  9 10  1  0  0  0  0
 10 11  2  0  0  0  0
 11 12  1  0  0  0  0
 12 13  2  0  0  0  0
 13  8  1  0  0  0  0
  9 14  1  0  0  0  0
 12 15  1  0  0  0  0
 15 16  1  0  0  0  0
 16 17  2  0  0  0  0
 17 18  1  0  0  0  0
 18 19  2  0  0  0  0
 19 20  1  0  0  0  0
 20 21  2  0  0  0  0
 21 16  1  0  0  0  0
 19 22  1  0  0  0  0
  4 23  1  0  0  0  0
 23 24  1  0  0  0  0
 24 25  1  0  0  0  0
 24 26  2  0  0  0  0
 25 27  2  0  0  0  0
 22 28  1  0  0  0  0
 28 29  2  0  0  0  0
 29 30  1  0  0  0  0
 30 31  2  0  0  0  0
 31 32  1  0  0  0  0
 32 33  2  0  0  0  0
 33 28  1  0  0  0  0
 32 34  1  0  0  0  0
 34 35  1  0  0  0  0
 34 36  2  0  0  0  0
 35 37  1  0  0  0  0
M  END
>  <Mol_ID> (402)
2644

>  <Formula> (402)
C26H22FN7O3

>  <MolWeight> (402)
499.4963832

>  <Cat> (402)
S7257 

>  <Name> (402)
CNX-774

>  <Synonyms> (402)
N/A

>  <Target> (402)
BTK

>  <Form> (402)
Free Base

>  <CAS> (402)
1202759-32-7

>  <URL> (402)
http://www.selleckchem.com/products/cnx-774.html

$$$$
UNC2250.cdx
csChFnd80/05071909292D

 32 35  0  0  0  0  0  0  0  0999 V2000
    6.0622    2.1000    0.0000 N   0  0  0  0  0  0  0  0  0  0  0  0
    6.0622    0.7000    0.0000 C   0  0  0  0  0  0  0  0  0  0  0  0
    7.2746    0.0000    0.0000 N   0  0  0  0  0  0  0  0  0  0  0  0
    8.4871    0.7000    0.0000 C   0  0  0  0  0  0  0  0  0  0  0  0
    8.4871    2.1000    0.0000 C   0  0  0  0  0  0  0  0  0  0  0  0
    7.2746    2.8000    0.0000 C   0  0  0  0  0  0  0  0  0  0  0  0
    4.8497    0.0000    0.0000 N   0  0  0  0  0  0  0  0  0  0  0  0
    3.6373    0.7000    0.0000 C   0  0  0  0  0  0  0  0  0  0  0  0
    2.4249    0.0000    0.0000 C   0  0  0  0  0  0  0  0  0  0  0  0
    1.2124    0.7000    0.0000 C   0  0  0  0  0  0  0  0  0  0  0  0
    0.0000    0.0000    0.0000 C   0  0  0  0  0  0  0  0  0  0  0  0
    7.2746    4.2000    0.0000 N   0  0  0  0  0  0  0  0  0  0  0  0
    6.0622    4.9000    0.0000 C   0  0  2  0  0  0  0  0  0  0  0  0
    6.0622    6.3000    0.0000 C   0  0  0  0  0  0  0  0  0  0  0  0
    4.8497    7.0000    0.0000 C   0  0  0  0  0  0  0  0  0  0  0  0
    3.6373    6.3000    0.0000 C   0  0  2  0  0  0  0  0  0  0  0  0
    3.6373    4.9000    0.0000 C   0  0  0  0  0  0  0  0  0  0  0  0
    4.8497    4.2000    0.0000 C   0  0  0  0  0  0  0  0  0  0  0  0
    2.4249    7.0000    0.0000 O   0  0  0  0  0  0  0  0  0  0  0  0
    9.6953    2.7976    0.0000 C   0  0  0  0  0  0  0  0  0  0  0  0
   10.9077    2.0976    0.0000 C   0  0  0  0  0  0  0  0  0  0  0  0
   12.1201    2.7976    0.0000 C   0  0  0  0  0  0  0  0  0  0  0  0
   12.1201    4.1976    0.0000 C   0  0  0  0  0  0  0  0  0  0  0  0
   10.9077    4.8976    0.0000 C   0  0  0  0  0  0  0  0  0  0  0  0
    9.6953    4.1976    0.0000 N   0  0  0  0  0  0  0  0  0  0  0  0
   13.3284    4.8951    0.0000 C   0  0  0  0  0  0  0  0  0  0  0  0
   14.5366    4.1976    0.0000 N   0  0  0  0  0  0  0  0  0  0  0  0
   14.5366    2.7976    0.0000 C   0  0  0  0  0  0  0  0  0  0  0  0
   15.7490    2.0976    0.0000 C   0  0  0  0  0  0  0  0  0  0  0  0
   16.9615    2.7976    0.0000 O   0  0  0  0  0  0  0  0  0  0  0  0
   16.9615    4.1976    0.0000 C   0  0  0  0  0  0  0  0  0  0  0  0
   15.7490    4.8976    0.0000 C   0  0  0  0  0  0  0  0  0  0  0  0
  1  2  2  0  0  0  0
  2  3  1  0  0  0  0
  3  4  2  0  0  0  0
  4  5  1  0  0  0  0
  5  6  2  0  0  0  0
  6  1  1  0  0  0  0
  2  7  1  0  0  0  0
  7  8  1  0  0  0  0
  8  9  1  0  0  0  0
  9 10  1  0  0  0  0
 10 11  1  0  0  0  0
  6 12  1  0  0  0  0
 13 12  1  1  0  0  0
 13 14  1  0  0  0  0
 14 15  1  0  0  0  0
 15 16  1  0  0  0  0
 16 17  1  0  0  0  0
 17 18  1  0  0  0  0
 18 13  1  0  0  0  0
 16 19  1  6  0  0  0
  5 20  1  0  0  0  0
 20 21  2  0  0  0  0
 21 22  1  0  0  0  0
 22 23  2  0  0  0  0
 23 24  1  0  0  0  0
 24 25  2  0  0  0  0
 25 20  1  0  0  0  0
 23 26  1  0  0  0  0
 26 27  1  0  0  0  0
 27 28  1  0  0  0  0
 28 29  1  0  0  0  0
 29 30  1  0  0  0  0
 30 31  1  0  0  0  0
 31 32  1  0  0  0  0
 32 27  1  0  0  0  0
M  END
>  <Mol_ID> (403)
2647

>  <Formula> (403)
C24H36N6O2

>  <MolWeight> (403)
440.58164

>  <Cat> (403)
S7342 

>  <Name> (403)
UNC2250

>  <Synonyms> (403)
N/A

>  <Target> (403)
Others

>  <Form> (403)
Free Base

>  <CAS> (403)
1493694-70-4

>  <URL> (403)
http://www.selleckchem.com/products/unc2250.html

$$$$
VE-822.cdx
csChFnd80/05071909292D

 33 36  0  0  0  0  0  0  0  0999 V2000
    0.0000    9.8000    0.0000 N   0  0  0  0  0  0  0  0  0  0  0  0
    0.0000    8.4000    0.0000 C   0  0  0  0  0  0  0  0  0  0  0  0
    1.2124    7.7000    0.0000 C   0  0  0  0  0  0  0  0  0  0  0  0
    2.4249    8.4000    0.0000 N   0  0  0  0  0  0  0  0  0  0  0  0
    2.4249    9.8000    0.0000 C   0  0  0  0  0  0  0  0  0  0  0  0
    1.2124   10.5000    0.0000 C   0  0  0  0  0  0  0  0  0  0  0  0
    1.2124    6.3000    0.0000 C   0  0  0  0  0  0  0  0  0  0  0  0
    1.2124   11.9000    0.0000 N   0  0  0  0  0  0  0  0  0  0  0  0
    3.6373   10.5000    0.0000 C   0  0  0  0  0  0  0  0  0  0  0  0
    0.0000    5.6000    0.0000 C   0  0  0  0  0  0  0  0  0  0  0  0
    0.0000    4.2000    0.0000 C   0  0  0  0  0  0  0  0  0  0  0  0
    1.2124    3.5000    0.0000 C   0  0  0  0  0  0  0  0  0  0  0  0
    2.4249    4.2000    0.0000 C   0  0  0  0  0  0  0  0  0  0  0  0
    2.4249    5.6000    0.0000 C   0  0  0  0  0  0  0  0  0  0  0  0
    1.2124    2.1000    0.0000 S   0  0  0  0  0  0  0  0  0  0  0  0
    2.4249    1.4000    0.0000 O   0  0  0  0  0  0  0  0  0  0  0  0
    0.0000    1.4000    0.0000 O   0  0  0  0  0  0  0  0  0  0  0  0
    1.2124    0.7000    0.0000 C   0  0  0  0  0  0  0  0  0  0  0  0
    2.4249    0.0000    0.0000 C   0  0  0  0  0  0  0  0  0  0  0  0
    0.0000    0.0000    0.0000 C   0  0  0  0  0  0  0  0  0  0  0  0
    4.9163    9.9306    0.0000 C   0  0  0  0  0  0  0  0  0  0  0  0
    5.8531   10.9710    0.0000 C   0  0  0  0  0  0  0  0  0  0  0  0
    5.1531   12.1834    0.0000 N   0  0  0  0  0  0  0  0  0  0  0  0
    3.7836   11.8923    0.0000 O   0  0  0  0  0  0  0  0  0  0  0  0
    7.2454   10.8246    0.0000 C   0  0  0  0  0  0  0  0  0  0  0  0
    7.8148    9.5457    0.0000 C   0  0  0  0  0  0  0  0  0  0  0  0
    9.2071    9.3993    0.0000 C   0  0  0  0  0  0  0  0  0  0  0  0
   10.0300   10.5320    0.0000 C   0  0  0  0  0  0  0  0  0  0  0  0
    9.4606   11.8109    0.0000 C   0  0  0  0  0  0  0  0  0  0  0  0
    8.0683   11.9573    0.0000 C   0  0  0  0  0  0  0  0  0  0  0  0
   11.4224   10.3856    0.0000 C   0  0  0  0  0  0  0  0  0  0  0  0
   12.2453   11.5182    0.0000 N   0  0  0  0  0  0  0  0  0  0  0  0
   13.6376   11.3719    0.0000 C   0  0  0  0  0  0  0  0  0  0  0  0
  1  2  2  0  0  0  0
  2  3  1  0  0  0  0
  3  4  2  0  0  0  0
  4  5  1  0  0  0  0
  5  6  2  0  0  0  0
  6  1  1  0  0  0  0
  3  7  1  0  0  0  0
  6  8  1  0  0  0  0
  5  9  1  0  0  0  0
  7 10  2  0  0  0  0
 10 11  1  0  0  0  0
 11 12  2  0  0  0  0
 12 13  1  0  0  0  0
 13 14  2  0  0  0  0
 14  7  1  0  0  0  0
 12 15  1  0  0  0  0
 15 16  2  0  0  0  0
 15 17  2  0  0  0  0
 15 18  1  0  0  0  0
 18 19  1  0  0  0  0
 18 20  1  0  0  0  0
  9 21  2  0  0  0  0
 21 22  1  0  0  0  0
 22 23  2  0  0  0  0
 23 24  1  0  0  0  0
 24  9  1  0  0  0  0
 22 25  1  0  0  0  0
 25 26  2  0  0  0  0
 26 27  1  0  0  0  0
 27 28  2  0  0  0  0
 28 29  1  0  0  0  0
 29 30  2  0  0  0  0
 30 25  1  0  0  0  0
 28 31  1  0  0  0  0
 31 32  1  0  0  0  0
 32 33  1  0  0  0  0
M  END
>  <Mol_ID> (404)
2648

>  <Formula> (404)
C24H25N5O3S

>  <MolWeight> (404)
463.552

>  <Cat> (404)
S7102

>  <Name> (404)
VE-822

>  <Synonyms> (404)
N/A

>  <Target> (404)
ATM/ATR

>  <Form> (404)
Free Base

>  <CAS> (404)
1232416-25-9

>  <URL> (404)
http://www.selleckchem.com/products/ve-822.html

$$$$
LM-3228 AR-A014418.cdx
csChFnd80/05071909292D

 21 22  0  0  0  0  0  0  0  0999 V2000
    2.9176    5.9146    0.0000 C   0  0  0  0  0  0  0  0  0  0  0  0
    2.2037    4.7103    0.0000 C   0  0  0  0  0  0  0  0  0  0  0  0
    3.1285    3.6592    0.0000 S   0  0  0  0  0  0  0  0  0  0  0  0
    4.4099    4.2069    0.0000 C   0  0  0  0  0  0  0  0  0  0  0  0
    4.2836    5.6078    0.0000 N   0  0  0  0  0  0  0  0  0  0  0  0
    0.8098    4.5800    0.0000 N   0  3  0  0  0  0  0  0  0  0  0  0
    0.0000    5.7220    0.0000 O   0  0  0  0  0  0  0  0  0  0  0  0
    0.2257    3.3076    0.0000 O   0  5  0  0  0  0  0  0  0  0  0  0
    5.6223    3.5069    0.0000 N   0  0  0  0  0  0  0  0  0  0  0  0
    6.8287    4.2035    0.0000 C   0  0  0  0  0  0  0  0  0  0  0  0
    8.0441    3.5017    0.0000 N   0  0  0  0  0  0  0  0  0  0  0  0
    6.8287    5.6000    0.0000 O   0  0  0  0  0  0  0  0  0  0  0  0
    9.2551    4.2009    0.0000 C   0  0  0  0  0  0  0  0  0  0  0  0
   10.4682    3.5004    0.0000 C   0  0  0  0  0  0  0  0  0  0  0  0
   10.4680    2.1000    0.0000 C   0  0  0  0  0  0  0  0  0  0  0  0
   11.6804    1.4000    0.0000 C   0  0  0  0  0  0  0  0  0  0  0  0
   12.8929    2.1000    0.0000 C   0  0  0  0  0  0  0  0  0  0  0  0
   12.8929    3.5000    0.0000 C   0  0  0  0  0  0  0  0  0  0  0  0
   11.6804    4.2000    0.0000 C   0  0  0  0  0  0  0  0  0  0  0  0
   14.1053    1.4000    0.0000 O   0  0  0  0  0  0  0  0  0  0  0  0
   14.1053    0.0000    0.0000 C   0  0  0  0  0  0  0  0  0  0  0  0
  1  2  2  0  0  0  0
  2  3  1  0  0  0  0
  3  4  1  0  0  0  0
  4  5  2  0  0  0  0
  5  1  1  0  0  0  0
  2  6  1  0  0  0  0
  4  9  1  0  0  0  0
  9 10  1  0  0  0  0
 10 11  1  0  0  0  0
 10 12  2  0  0  0  0
 11 13  1  0  0  0  0
 13 14  1  0  0  0  0
 14 15  2  0  0  0  0
 15 16  1  0  0  0  0
 16 17  2  0  0  0  0
 17 18  1  0  0  0  0
 18 19  2  0  0  0  0
 19 14  1  0  0  0  0
 17 20  1  0  0  0  0
 20 21  1  0  0  0  0
  6  7  2  0  0  0  0
  6  8  1  0  0  0  0
M  END
>  <Mol_ID> (405)
2649

>  <Formula> (405)
C12H12N4O4S

>  <MolWeight> (405)
308.31308

>  <Cat> (405)
S7435 

>  <Name> (405)
AR-A014418

>  <Synonyms> (405)
GSK-3 Inhibitor VIII

>  <Target> (405)
GSK-3

>  <Form> (405)
Free Base

>  <CAS> (405)
487021-52-3

>  <URL> (405)
http://www.selleckchem.com/products/ar-a014418.html

$$$$
LM-3151 K 02288.cdx
csChFnd80/05071909292D

 26 28  0  0  0  0  0  0  0  0999 V2000
    0.0000    6.3000    0.0000 N   0  0  0  0  0  0  0  0  0  0  0  0
    0.0000    4.9000    0.0000 C   0  0  0  0  0  0  0  0  0  0  0  0
    1.2124    4.2000    0.0000 C   0  0  0  0  0  0  0  0  0  0  0  0
    2.4249    4.9000    0.0000 C   0  0  0  0  0  0  0  0  0  0  0  0
    2.4249    6.3000    0.0000 C   0  0  0  0  0  0  0  0  0  0  0  0
    1.2124    7.0000    0.0000 C   0  0  0  0  0  0  0  0  0  0  0  0
    1.2124    2.8000    0.0000 C   0  0  0  0  0  0  0  0  0  0  0  0
    0.0000    2.1000    0.0000 C   0  0  0  0  0  0  0  0  0  0  0  0
    0.0000    0.7000    0.0000 C   0  0  0  0  0  0  0  0  0  0  0  0
    1.2124    0.0000    0.0000 C   0  0  0  0  0  0  0  0  0  0  0  0
    2.4249    0.7000    0.0000 C   0  0  0  0  0  0  0  0  0  0  0  0
    2.4249    2.1000    0.0000 C   0  0  0  0  0  0  0  0  0  0  0  0
    1.2124    8.4000    0.0000 N   0  0  0  0  0  0  0  0  0  0  0  0
    3.6373    7.0000    0.0000 C   0  0  0  0  0  0  0  0  0  0  0  0
    3.6373    0.0000    0.0000 O   0  0  0  0  0  0  0  0  0  0  0  0
    4.8497    6.3000    0.0000 C   0  0  0  0  0  0  0  0  0  0  0  0
    6.0622    7.0000    0.0000 C   0  0  0  0  0  0  0  0  0  0  0  0
    6.0622    8.4000    0.0000 C   0  0  0  0  0  0  0  0  0  0  0  0
    4.8497    9.1000    0.0000 C   0  0  0  0  0  0  0  0  0  0  0  0
    3.6373    8.4000    0.0000 C   0  0  0  0  0  0  0  0  0  0  0  0
    4.8497   10.5000    0.0000 O   0  0  0  0  0  0  0  0  0  0  0  0
    3.6373   11.2000    0.0000 C   0  0  0  0  0  0  0  0  0  0  0  0
    7.2746    9.1000    0.0000 O   0  0  0  0  0  0  0  0  0  0  0  0
    7.2746   10.5000    0.0000 C   0  0  0  0  0  0  0  0  0  0  0  0
    7.2746    6.3000    0.0000 O   0  0  0  0  0  0  0  0  0  0  0  0
    7.2746    4.9000    0.0000 C   0  0  0  0  0  0  0  0  0  0  0  0
  1  2  2  0  0  0  0
  2  3  1  0  0  0  0
  3  4  2  0  0  0  0
  4  5  1  0  0  0  0
  5  6  2  0  0  0  0
  6  1  1  0  0  0  0
  3  7  1  0  0  0  0
  7  8  2  0  0  0  0
  8  9  1  0  0  0  0
  9 10  2  0  0  0  0
 10 11  1  0  0  0  0
 11 12  2  0  0  0  0
 12  7  1  0  0  0  0
  6 13  1  0  0  0  0
  5 14  1  0  0  0  0
 11 15  1  0  0  0  0
 14 16  2  0  0  0  0
 16 17  1  0  0  0  0
 17 18  2  0  0  0  0
 18 19  1  0  0  0  0
 19 20  2  0  0  0  0
 20 14  1  0  0  0  0
 19 21  1  0  0  0  0
 21 22  1  0  0  0  0
 18 23  1  0  0  0  0
 23 24  1  0  0  0  0
 17 25  1  0  0  0  0
 25 26  1  0  0  0  0
M  END
>  <Mol_ID> (406)
2650

>  <Formula> (406)
C20H20N2O4

>  <MolWeight> (406)
352.3838

>  <Cat> (406)
S7359

>  <Name> (406)
K02288

>  <Synonyms> (406)
N/A

>  <Target> (406)
TGF-beta/Smad

>  <Form> (406)
Free Base

>  <CAS> (406)
1431985-92-0

>  <URL> (406)
http://www.selleckchem.com/products/k02288.html

$$$$
GSK2656157.cdx
csChFnd80/05071909292D

 31 35  0  0  0  0  0  0  0  0999 V2000
    0.1311    3.1641    0.0000 N   0  0  0  0  0  0  0  0  0  0  0  0
    0.1311    1.7641    0.0000 C   0  0  0  0  0  0  0  0  0  0  0  0
    1.3435    1.0641    0.0000 N   0  0  0  0  0  0  0  0  0  0  0  0
    2.5559    1.7641    0.0000 C   0  0  0  0  0  0  0  0  0  0  0  0
    2.5559    3.1641    0.0000 C   0  0  0  0  0  0  0  0  0  0  0  0
    1.3435    3.8641    0.0000 C   0  0  0  0  0  0  0  0  0  0  0  0
    3.8874    1.3315    0.0000 N   0  0  0  0  0  0  0  0  0  0  0  0
    4.7103    2.4641    0.0000 C   0  0  0  0  0  0  0  0  0  0  0  0
    3.8874    3.5967    0.0000 C   0  0  0  0  0  0  0  0  0  0  0  0
    1.3435    5.2641    0.0000 N   0  0  0  0  0  0  0  0  0  0  0  0
    4.3200    0.0000    0.0000 C   0  0  0  0  0  0  0  0  0  0  0  0
    4.3200    4.9282    0.0000 C   0  0  0  0  0  0  0  0  0  0  0  0
    5.6894    5.2193    0.0000 C   0  0  0  0  0  0  0  0  0  0  0  0
    6.1221    6.5508    0.0000 C   0  0  0  0  0  0  0  0  0  0  0  0
    5.1853    7.5912    0.0000 C   0  0  0  0  0  0  0  0  0  0  0  0
    3.8159    7.3001    0.0000 C   0  0  0  0  0  0  0  0  0  0  0  0
    3.3833    5.9686    0.0000 C   0  0  0  0  0  0  0  0  0  0  0  0
    6.6262    4.1789    0.0000 F   0  0  0  0  0  0  0  0  0  0  0  0
    7.4010    7.1202    0.0000 C   0  0  0  0  0  0  0  0  0  0  0  0
    7.2547    8.5125    0.0000 C   0  0  0  0  0  0  0  0  0  0  0  0
    5.8853    8.8036    0.0000 N   0  0  0  0  0  0  0  0  0  0  0  0
    5.3159   10.0826    0.0000 C   0  0  0  0  0  0  0  0  0  0  0  0
    6.1388   11.2152    0.0000 O   0  0  0  0  0  0  0  0  0  0  0  0
    3.9235   10.2289    0.0000 C   0  0  0  0  0  0  0  0  0  0  0  0
    3.3541   11.5079    0.0000 C   0  0  0  0  0  0  0  0  0  0  0  0
    4.1770   12.6405    0.0000 C   0  0  0  0  0  0  0  0  0  0  0  0
    3.6076   13.9195    0.0000 C   0  0  0  0  0  0  0  0  0  0  0  0
    2.2152   14.0658    0.0000 C   0  0  0  0  0  0  0  0  0  0  0  0
    1.3923   12.9332    0.0000 C   0  0  0  0  0  0  0  0  0  0  0  0
    1.9618   11.6542    0.0000 N   0  0  0  0  0  0  0  0  0  0  0  0
    0.0000   13.0795    0.0000 C   0  0  0  0  0  0  0  0  0  0  0  0
  1  2  2  0  0  0  0
  2  3  1  0  0  0  0
  3  4  2  0  0  0  0
  4  5  1  0  0  0  0
  5  6  2  0  0  0  0
  6  1  1  0  0  0  0
  4  7  1  0  0  0  0
  7  8  1  0  0  0  0
  8  9  2  0  0  0  0
  9  5  1  0  0  0  0
  6 10  1  0  0  0  0
  7 11  1  0  0  0  0
  9 12  1  0  0  0  0
 12 13  2  0  0  0  0
 13 14  1  0  0  0  0
 14 15  2  0  0  0  0
 15 16  1  0  0  0  0
 16 17  2  0  0  0  0
 17 12  1  0  0  0  0
 13 18  1  0  0  0  0
 14 19  1  0  0  0  0
 19 20  1  0  0  0  0
 20 21  1  0  0  0  0
 21 15  1  0  0  0  0
 21 22  1  0  0  0  0
 22 23  2  0  0  0  0
 22 24  1  0  0  0  0
 24 25  1  0  0  0  0
 25 26  2  0  0  0  0
 26 27  1  0  0  0  0
 27 28  2  0  0  0  0
 28 29  1  0  0  0  0
 29 30  2  0  0  0  0
 30 25  1  0  0  0  0
 29 31  1  0  0  0  0
M  END
>  <Mol_ID> (407)
2652

>  <Formula> (407)
C23H21FN6O

>  <MolWeight> (407)
416.4508432

>  <Cat> (407)
S7033

>  <Name> (407)
GSK2656157

>  <Synonyms> (407)
N/A

>  <Target> (407)
PERK

>  <Form> (407)
Free Base

>  <CAS> (407)
1337532-29-2

>  <URL> (407)
http://www.selleckchem.com/products/gsk2656157.html

$$$$
MK8745.cdx
csChFnd80/05071909292D

 29 32  0  0  0  0  0  0  0  0999 V2000
    1.2082    2.1000    0.0000 C   0  0  0  0  0  0  0  0  0  0  0  0
    1.2082    0.7000    0.0000 C   0  0  0  0  0  0  0  0  0  0  0  0
    2.4207    0.0000    0.0000 C   0  0  0  0  0  0  0  0  0  0  0  0
    3.6331    0.7000    0.0000 C   0  0  0  0  0  0  0  0  0  0  0  0
    3.6331    2.1000    0.0000 C   0  0  0  0  0  0  0  0  0  0  0  0
    2.4207    2.8000    0.0000 C   0  0  0  0  0  0  0  0  0  0  0  0
    0.0000    2.7976    0.0000 Cl  0  0  0  0  0  0  0  0  0  0  0  0
    2.4207    4.1951    0.0000 F   0  0  0  0  0  0  0  0  0  0  0  0
    4.8413    2.7976    0.0000 C   0  0  0  0  0  0  0  0  0  0  0  0
    6.0496    2.1000    0.0000 N   0  0  0  0  0  0  0  0  0  0  0  0
    4.8413    4.1927    0.0000 O   0  0  0  0  0  0  0  0  0  0  0  0
    6.0496    0.7000    0.0000 C   0  0  0  0  0  0  0  0  0  0  0  0
    7.2620    0.0000    0.0000 C   0  0  0  0  0  0  0  0  0  0  0  0
    8.4744    0.7000    0.0000 N   0  0  0  0  0  0  0  0  0  0  0  0
    8.4744    2.1000    0.0000 C   0  0  0  0  0  0  0  0  0  0  0  0
    7.2620    2.8000    0.0000 C   0  0  0  0  0  0  0  0  0  0  0  0
    9.6827    0.0024    0.0000 C   0  0  0  0  0  0  0  0  0  0  0  0
   10.8909    0.7000    0.0000 C   0  0  0  0  0  0  0  0  0  0  0  0
   12.1033    0.0000    0.0000 C   0  0  0  0  0  0  0  0  0  0  0  0
   13.3157    0.7000    0.0000 C   0  0  0  0  0  0  0  0  0  0  0  0
   13.3157    2.1000    0.0000 C   0  0  0  0  0  0  0  0  0  0  0  0
   12.1033    2.8000    0.0000 C   0  0  0  0  0  0  0  0  0  0  0  0
   10.8909    2.1000    0.0000 N   0  0  0  0  0  0  0  0  0  0  0  0
   12.1033    4.1951    0.0000 N   0  0  0  0  0  0  0  0  0  0  0  0
   13.3115    4.8927    0.0000 C   0  0  0  0  0  0  0  0  0  0  0  0
   14.5905    4.3233    0.0000 N   0  0  0  0  0  0  0  0  0  0  0  0
   15.5273    5.3637    0.0000 C   0  0  0  0  0  0  0  0  0  0  0  0
   14.8273    6.5761    0.0000 C   0  0  0  0  0  0  0  0  0  0  0  0
   13.4579    6.2850    0.0000 S   0  0  0  0  0  0  0  0  0  0  0  0
  1  2  2  0  0  0  0
  2  3  1  0  0  0  0
  3  4  2  0  0  0  0
  4  5  1  0  0  0  0
  5  6  2  0  0  0  0
  6  1  1  0  0  0  0
  1  7  1  0  0  0  0
  6  8  1  0  0  0  0
  5  9  1  0  0  0  0
  9 10  1  0  0  0  0
  9 11  2  0  0  0  0
 10 12  1  0  0  0  0
 12 13  1  0  0  0  0
 13 14  1  0  0  0  0
 14 15  1  0  0  0  0
 15 16  1  0  0  0  0
 16 10  1  0  0  0  0
 14 17  1  0  0  0  0
 17 18  1  0  0  0  0
 18 19  2  0  0  0  0
 19 20  1  0  0  0  0
 20 21  2  0  0  0  0
 21 22  1  0  0  0  0
 22 23  2  0  0  0  0
 23 18  1  0  0  0  0
 22 24  1  0  0  0  0
 24 25  1  0  0  0  0
 25 26  2  0  0  0  0
 26 27  1  0  0  0  0
 27 28  2  0  0  0  0
 28 29  1  0  0  0  0
 29 25  1  0  0  0  0
M  END
>  <Mol_ID> (408)
2653

>  <Formula> (408)
C20H19ClFN5OS

>  <MolWeight> (408)
431.9141632

>  <Cat> (408)
S7065

>  <Name> (408)
MK8745

>  <Synonyms> (408)
N/A

>  <Target> (408)
Aurora Kinase

>  <Form> (408)
Free Base

>  <CAS> (408)
885325-71-3

>  <URL> (408)
http://www.selleckchem.com/products/mk-8745.html

$$$$
LEE011-2.cdx
csChFnd80/05071909292D

 32 36  0  0  0  0  0  0  0  0999 V2000
    3.6373    4.2000    0.0000 C   0  0  0  0  0  0  0  0  0  0  0  0
    3.6373    2.8000    0.0000 C   0  0  0  0  0  0  0  0  0  0  0  0
    4.8497    2.1000    0.0000 C   0  0  0  0  0  0  0  0  0  0  0  0
    6.0622    2.8000    0.0000 C   0  0  0  0  0  0  0  0  0  0  0  0
    6.0622    4.2000    0.0000 C   0  0  0  0  0  0  0  0  0  0  0  0
    4.8497    4.9000    0.0000 N   0  0  0  0  0  0  0  0  0  0  0  0
    2.4249    2.1000    0.0000 N   0  0  0  0  0  0  0  0  0  0  0  0
    1.2124    2.8000    0.0000 C   0  0  0  0  0  0  0  0  0  0  0  0
    0.0000    2.1000    0.0000 C   0  0  0  0  0  0  0  0  0  0  0  0
    0.0000    0.7000    0.0000 N   0  0  0  0  0  0  0  0  0  0  0  0
    1.2124    0.0000    0.0000 C   0  0  0  0  0  0  0  0  0  0  0  0
    2.4249    0.7000    0.0000 C   0  0  0  0  0  0  0  0  0  0  0  0
    7.2746    4.9000    0.0000 N   0  0  0  0  0  0  0  0  0  0  0  0
    8.4870    4.2000    0.0000 C   0  0  0  0  0  0  0  0  0  0  0  0
    8.4870    2.8000    0.0000 N   0  0  0  0  0  0  0  0  0  0  0  0
    9.6995    2.1000    0.0000 C   0  0  0  0  0  0  0  0  0  0  0  0
   10.9119    2.8000    0.0000 C   0  0  0  0  0  0  0  0  0  0  0  0
   10.9119    4.2000    0.0000 C   0  0  0  0  0  0  0  0  0  0  0  0
    9.6995    4.9000    0.0000 N   0  0  0  0  0  0  0  0  0  0  0  0
   12.2434    2.3674    0.0000 C   0  0  0  0  0  0  0  0  0  0  0  0
   13.0663    3.5000    0.0000 C   0  0  0  0  0  0  0  0  0  0  0  0
   12.2434    4.6326    0.0000 N   0  0  0  0  0  0  0  0  0  0  0  0
   12.6745    5.9595    0.0000 C   0  0  0  0  0  0  0  0  0  0  0  0
   14.0060    6.3921    0.0000 C   0  0  0  0  0  0  0  0  0  0  0  0
   14.0060    7.7921    0.0000 C   0  0  0  0  0  0  0  0  0  0  0  0
   12.6745    8.2247    0.0000 C   0  0  0  0  0  0  0  0  0  0  0  0
   11.8516    7.0921    0.0000 C   0  0  0  0  0  0  0  0  0  0  0  0
   14.4614    3.5000    0.0000 C   0  0  0  0  0  0  0  0  0  0  0  0
   15.1590    4.7082    0.0000 O   0  0  0  0  0  0  0  0  0  0  0  0
   15.1590    2.2918    0.0000 N   0  0  0  0  0  0  0  0  0  0  0  0
   14.4614    1.0835    0.0000 C   0  0  0  0  0  0  0  0  0  0  0  0
   16.5542    2.2918    0.0000 C   0  0  0  0  0  0  0  0  0  0  0  0
  1  2  2  0  0  0  0
  2  3  1  0  0  0  0
  3  4  2  0  0  0  0
  4  5  1  0  0  0  0
  5  6  2  0  0  0  0
  6  1  1  0  0  0  0
  2  7  1  0  0  0  0
  7  8  1  0  0  0  0
  8  9  1  0  0  0  0
  9 10  1  0  0  0  0
 10 11  1  0  0  0  0
 11 12  1  0  0  0  0
 12  7  1  0  0  0  0
  5 13  1  0  0  0  0
 13 14  1  0  0  0  0
 14 15  2  0  0  0  0
 15 16  1  0  0  0  0
 16 17  2  0  0  0  0
 17 18  1  0  0  0  0
 18 19  2  0  0  0  0
 19 14  1  0  0  0  0
 17 20  1  0  0  0  0
 20 21  2  0  0  0  0
 21 22  1  0  0  0  0
 22 18  1  0  0  0  0
 22 23  1  0  0  0  0
 23 24  1  0  0  0  0
 24 25  1  0  0  0  0
 25 26  1  0  0  0  0
 26 27  1  0  0  0  0
 27 23  1  0  0  0  0
 21 28  1  0  0  0  0
 28 29  2  0  0  0  0
 28 30  1  0  0  0  0
 30 31  1  0  0  0  0
 30 32  1  0  0  0  0
M  END
>  <Mol_ID> (409)
2657

>  <Formula> (409)
C23H30N8O

>  <MolWeight> (409)
434.5373

>  <Cat> (409)
S7440 

>  <Name> (409)
Ribociclib (LEE011)

>  <Synonyms> (409)
N/A

>  <Target> (409)
CDK

>  <Form> (409)
Free Base

>  <CAS> (409)
1211441-98-3

>  <URL> (409)
http://www.selleckchem.com/products/lee011.html

$$$$
LM-3230 NH125.cdx
csChFnd80/05071909292D

 30 30  0  0  0  0  0  0  0  0999 V2000
    1.6314    6.0272    0.0000 N   0  3  0  0  0  0  0  0  0  0  0  0
    1.2770    3.7898    0.0000 N   0  0  0  0  0  0  0  0  0  0  0  0
    2.2670    4.7798    0.0000 C   0  0  0  0  0  0  0  0  0  0  0  0
    0.2486    5.8082    0.0000 C   0  0  0  0  0  0  0  0  0  0  0  0
    0.0296    4.4254    0.0000 C   0  0  0  0  0  0  0  0  0  0  0  0
    1.4961    2.4071    0.0000 C   0  0  0  0  0  0  0  0  0  0  0  0
    2.2670    7.2746    0.0000 C   0  0  0  0  0  0  0  0  0  0  0  0
    2.8031    1.9054    0.0000 C   0  0  0  0  0  0  0  0  0  0  0  0
    3.6498    4.5608    0.0000 C   0  0  0  0  0  0  0  0  0  0  0  0
    3.0221    0.5226    0.0000 C   0  0  0  0  0  0  0  0  0  0  0  0
    3.8911    2.7864    0.0000 C   0  0  0  0  0  0  0  0  0  0  0  0
    3.6670    7.2746    0.0000 C   0  0  0  0  0  0  0  0  0  0  0  0
    8.5670    1.2124    0.0000 C   0  0  0  0  0  0  0  0  0  0  0  0
    9.9670    1.2124    0.0000 C   0  0  0  0  0  0  0  0  0  0  0  0
   10.6670    2.4249    0.0000 C   0  0  0  0  0  0  0  0  0  0  0  0
    4.3670    6.0622    0.0000 C   0  0  0  0  0  0  0  0  0  0  0  0
    5.7670    6.0622    0.0000 C   0  0  0  0  0  0  0  0  0  0  0  0
    9.9670    3.6373    0.0000 C   0  0  0  0  0  0  0  0  0  0  0  0
    7.8670    4.8497    0.0000 C   0  0  0  0  0  0  0  0  0  0  0  0
    8.5670    3.6373    0.0000 C   0  0  0  0  0  0  0  0  0  0  0  0
   12.7670    1.2124    0.0000 C   0  0  0  0  0  0  0  0  0  0  0  0
   12.0670    0.0000    0.0000 C   0  0  0  0  0  0  0  0  0  0  0  0
   10.6670    0.0000    0.0000 C   0  0  0  0  0  0  0  0  0  0  0  0
   12.0670    2.4249    0.0000 C   0  0  0  0  0  0  0  0  0  0  0  0
    6.4670    4.8497    0.0000 C   0  0  0  0  0  0  0  0  0  0  0  0
    7.8670    2.4249    0.0000 C   0  0  0  0  0  0  0  0  0  0  0  0
    4.3291    0.0209    0.0000 C   0  0  0  0  0  0  0  0  0  0  0  0
    5.1981    2.2847    0.0000 C   0  0  0  0  0  0  0  0  0  0  0  0
    5.4171    0.9019    0.0000 C   0  0  0  0  0  0  0  0  0  0  0  0
    0.0000    7.4373    0.0000 I   0  5  0  0  0  0  0  0  0  0  0  0
  3  1  2  0  0  0  0
  4  1  1  0  0  0  0
  7  1  1  0  0  0  0
  2  3  1  0  0  0  0
  6  2  1  0  0  0  0
  5  2  1  0  0  0  0
  9  3  1  0  0  0  0
  5  4  2  0  0  0  0
  8  6  1  0  0  0  0
 12  7  1  0  0  0  0
 10  8  2  0  0  0  0
 11  8  1  0  0  0  0
 27 10  1  0  0  0  0
 28 11  2  0  0  0  0
 16 12  1  0  0  0  0
 13 14  1  0  0  0  0
 26 13  1  0  0  0  0
 14 23  1  0  0  0  0
 15 18  1  0  0  0  0
 24 15  1  0  0  0  0
 17 16  1  0  0  0  0
 25 17  1  0  0  0  0
 18 20  1  0  0  0  0
 19 25  1  0  0  0  0
 20 19  1  0  0  0  0
 21 24  1  0  0  0  0
 22 21  1  0  0  0  0
 23 22  1  0  0  0  0
 29 27  2  0  0  0  0
 29 28  1  0  0  0  0
M  END
>  <Mol_ID> (410)
2664

>  <Formula> (410)
C27H45IN2

>  <MolWeight> (410)
524.56407

>  <Cat> (410)
S7436 

>  <Name> (410)
NH125

>  <Synonyms> (410)
N/A

>  <Target> (410)
CaMK

>  <Form> (410)
iodide

>  <CAS> (410)
278603-08-0

>  <URL> (410)
http://www.selleckchem.com/products/nh125.html

$$$$
LDN193189 HCl.cdx
csChFnd80/05071909292D

 32 36  0  0  0  0  0  0  0  0999 V2000
    3.6331    7.9200    0.0000 C   0  0  0  0  0  0  0  0  0  0  0  0
    3.6331    6.5200    0.0000 C   0  0  0  0  0  0  0  0  0  0  0  0
    4.8455    5.8200    0.0000 C   0  0  0  0  0  0  0  0  0  0  0  0
    6.0580    6.5200    0.0000 C   0  0  0  0  0  0  0  0  0  0  0  0
    6.0580    7.9200    0.0000 C   0  0  0  0  0  0  0  0  0  0  0  0
    4.8455    8.6200    0.0000 C   0  0  0  0  0  0  0  0  0  0  0  0
    2.4249    8.6176    0.0000 N   0  0  0  0  0  0  0  0  0  0  0  0
    2.4249   10.0176    0.0000 C   0  0  0  0  0  0  0  0  0  0  0  0
    1.2124   10.7176    0.0000 C   0  0  0  0  0  0  0  0  0  0  0  0
    0.0000   10.0176    0.0000 N   0  0  0  0  0  0  0  0  0  0  0  0
    0.0000    8.6176    0.0000 C   0  0  0  0  0  0  0  0  0  0  0  0
    1.2124    7.9176    0.0000 C   0  0  0  0  0  0  0  0  0  0  0  0
    7.2662    5.8224    0.0000 C   0  0  0  0  0  0  0  0  0  0  0  0
    7.2662    4.4224    0.0000 C   0  0  0  0  0  0  0  0  0  0  0  0
    8.4786    3.7224    0.0000 N   0  0  0  0  0  0  0  0  0  0  0  0
    9.6911    4.4224    0.0000 C   0  0  0  0  0  0  0  0  0  0  0  0
    9.6911    5.8224    0.0000 N   0  0  0  0  0  0  0  0  0  0  0  0
    8.4786    6.5224    0.0000 C   0  0  0  0  0  0  0  0  0  0  0  0
   11.0225    3.9898    0.0000 C   0  0  0  0  0  0  0  0  0  0  0  0
   11.8454    5.1224    0.0000 C   0  0  0  0  0  0  0  0  0  0  0  0
   11.0225    6.2551    0.0000 N   0  0  0  0  0  0  0  0  0  0  0  0
   11.4537    2.6630    0.0000 C   0  0  0  0  0  0  0  0  0  0  0  0
   10.5169    1.6226    0.0000 C   0  0  0  0  0  0  0  0  0  0  0  0
   10.9495    0.2911    0.0000 C   0  0  0  0  0  0  0  0  0  0  0  0
   12.3189    0.0000    0.0000 N   0  0  0  0  0  0  0  0  0  0  0  0
   13.2557    1.0404    0.0000 C   0  0  0  0  0  0  0  0  0  0  0  0
   12.8231    2.3719    0.0000 C   0  0  0  0  0  0  0  0  0  0  0  0
   14.6251    0.7493    0.0000 C   0  0  0  0  0  0  0  0  0  0  0  0
   15.5619    1.7897    0.0000 C   0  0  0  0  0  0  0  0  0  0  0  0
   15.1293    3.1212    0.0000 C   0  0  0  0  0  0  0  0  0  0  0  0
   13.7599    3.4123    0.0000 C   0  0  0  0  0  0  0  0  0  0  0  0
    4.7574    0.8179    0.0000 Cl  0  0  0  0  0  0  0  0  0  0  0  0
  1  2  2  0  0  0  0
  2  3  1  0  0  0  0
  3  4  2  0  0  0  0
  4  5  1  0  0  0  0
  5  6  2  0  0  0  0
  6  1  1  0  0  0  0
  1  7  1  0  0  0  0
  7  8  1  0  0  0  0
  8  9  1  0  0  0  0
  9 10  1  0  0  0  0
 10 11  1  0  0  0  0
 11 12  1  0  0  0  0
 12  7  1  0  0  0  0
  4 13  1  0  0  0  0
 13 14  1  0  0  0  0
 14 15  2  0  0  0  0
 15 16  1  0  0  0  0
 16 17  1  0  0  0  0
 17 18  1  0  0  0  0
 18 13  2  0  0  0  0
 16 19  2  0  0  0  0
 19 20  1  0  0  0  0
 20 21  2  0  0  0  0
 21 17  1  0  0  0  0
 19 22  1  0  0  0  0
 22 23  2  0  0  0  0
 23 24  1  0  0  0  0
 24 25  2  0  0  0  0
 25 26  1  0  0  0  0
 26 27  2  0  0  0  0
 27 22  1  0  0  0  0
 26 28  1  0  0  0  0
 28 29  2  0  0  0  0
 29 30  1  0  0  0  0
 30 31  2  0  0  0  0
 31 27  1  0  0  0  0
M  END
>  <Mol_ID> (411)
2671

>  <Formula> (411)
C25H23ClN6

>  <MolWeight> (411)
442.94332

>  <Cat> (411)
S7507 

>  <Name> (411)
LDN193189 HCl

>  <Synonyms> (411)
N/A

>  <Target> (411)
TGF-beta/Smad

>  <Form> (411)
Hydrochloride

>  <CAS> (411)
1062368-62-0

>  <URL> (411)
http://www.selleckchem.com/products/ldn-193189-HCl.html

$$$$
LM-3053 SKLB1002.cdx
csChFnd80/05071909292D

 21 23  0  0  0  0  0  0  0  0999 V2000
    2.4249    2.1000    0.0000 C   0  0  0  0  0  0  0  0  0  0  0  0
    2.4249    0.7000    0.0000 C   0  0  0  0  0  0  0  0  0  0  0  0
    3.6373    0.0000    0.0000 C   0  0  0  0  0  0  0  0  0  0  0  0
    4.8497    0.7000    0.0000 C   0  0  0  0  0  0  0  0  0  0  0  0
    4.8497    2.1000    0.0000 C   0  0  0  0  0  0  0  0  0  0  0  0
    3.6373    2.8000    0.0000 C   0  0  0  0  0  0  0  0  0  0  0  0
    6.0622    0.0000    0.0000 N   0  0  0  0  0  0  0  0  0  0  0  0
    7.2746    0.7000    0.0000 C   0  0  0  0  0  0  0  0  0  0  0  0
    7.2746    2.1000    0.0000 N   0  0  0  0  0  0  0  0  0  0  0  0
    6.0622    2.8000    0.0000 C   0  0  0  0  0  0  0  0  0  0  0  0
    1.2124    2.8000    0.0000 O   0  0  0  0  0  0  0  0  0  0  0  0
    0.0000    2.1000    0.0000 C   0  0  0  0  0  0  0  0  0  0  0  0
    1.2124    0.0000    0.0000 O   0  0  0  0  0  0  0  0  0  0  0  0
    0.0000    0.7000    0.0000 C   0  0  0  0  0  0  0  0  0  0  0  0
    6.0622    4.2000    0.0000 S   0  0  0  0  0  0  0  0  0  0  0  0
    7.2746    4.9000    0.0000 C   0  0  0  0  0  0  0  0  0  0  0  0
    8.5536    4.3306    0.0000 S   0  0  0  0  0  0  0  0  0  0  0  0
    9.4904    5.3710    0.0000 C   0  0  0  0  0  0  0  0  0  0  0  0
    8.7904    6.5834    0.0000 N   0  0  0  0  0  0  0  0  0  0  0  0
    7.4210    6.2923    0.0000 N   0  0  0  0  0  0  0  0  0  0  0  0
   10.8827    5.2246    0.0000 C   0  0  0  0  0  0  0  0  0  0  0  0
  1  2  2  0  0  0  0
  2  3  1  0  0  0  0
  3  4  2  0  0  0  0
  4  5  1  0  0  0  0
  5  6  2  0  0  0  0
  6  1  1  0  0  0  0
  4  7  1  0  0  0  0
  7  8  2  0  0  0  0
  8  9  1  0  0  0  0
  9 10  2  0  0  0  0
 10  5  1  0  0  0  0
  1 11  1  0  0  0  0
 11 12  1  0  0  0  0
  2 13  1  0  0  0  0
 13 14  1  0  0  0  0
 10 15  1  0  0  0  0
 15 16  1  0  0  0  0
 16 17  1  0  0  0  0
 17 18  1  0  0  0  0
 18 19  2  0  0  0  0
 19 20  1  0  0  0  0
 20 16  2  0  0  0  0
 18 21  1  0  0  0  0
M  END
>  <Mol_ID> (412)
2673

>  <Formula> (412)
C13H12N4O2S2

>  <MolWeight> (412)
320.38998

>  <Cat> (412)
S7258

>  <Name> (412)
SKLB1002

>  <Synonyms> (412)
N/A

>  <Target> (412)
VEGFR

>  <Form> (412)
Free Base

>  <CAS> (412)
1225451-84-2

>  <URL> (412)
http://www.selleckchem.com/products/sklb1002.html

$$$$
1-Azakenpaullone.cdx
csChFnd80/05071909292D

 20 23  0  0  0  0  0  0  0  0999 V2000
    3.5137    3.5592    0.0000 C   0  0  0  0  0  0  0  0  0  0  0  0
    4.8806    3.8619    0.0000 C   0  0  0  0  0  0  0  0  0  0  0  0
    3.3793    2.1656    0.0000 N   0  0  0  0  0  0  0  0  0  0  0  0
    2.4248    4.4391    0.0000 C   0  0  0  0  0  0  0  0  0  0  0  0
    5.5909    2.6555    0.0000 C   0  0  0  0  0  0  0  0  0  0  0  0
    4.6630    1.6071    0.0000 C   0  0  0  0  0  0  0  0  0  0  0  0
    3.5298    6.6844    0.0000 N   0  0  0  0  0  0  0  0  0  0  0  0
    2.4338    5.8391    0.0000 C   0  0  0  0  0  0  0  0  0  0  0  0
    4.9010    6.4051    0.0000 C   0  0  0  0  0  0  0  0  0  0  0  0
    5.4962    5.1193    0.0000 C   0  0  0  0  0  0  0  0  0  0  0  0
    1.2079    3.7469    0.0000 N   0  0  0  0  0  0  0  0  0  0  0  0
    6.9628    2.3761    0.0000 C   0  0  0  0  0  0  0  0  0  0  0  0
    5.7694    7.5032    0.0000 O   0  0  0  0  0  0  0  0  0  0  0  0
    5.1070    0.2794    0.0000 C   0  0  0  0  0  0  0  0  0  0  0  0
    7.4067    1.0483    0.0000 C   0  0  0  0  0  0  0  0  0  0  0  0
    6.4788    0.0000    0.0000 C   0  0  0  0  0  0  0  0  0  0  0  0
    8.7786    0.7690    0.0000 Br  0  0  0  0  0  0  0  0  0  0  0  0
    1.2259    6.5468    0.0000 C   0  0  0  0  0  0  0  0  0  0  0  0
    0.0000    4.4547    0.0000 C   0  0  0  0  0  0  0  0  0  0  0  0
    0.0090    5.8547    0.0000 C   0  0  0  0  0  0  0  0  0  0  0  0
  2  1  2  0  0  0  0
  3  1  1  0  0  0  0
  4  1  1  0  0  0  0
  5  2  1  0  0  0  0
 10  2  1  0  0  0  0
  6  3  1  0  0  0  0
  8  4  2  0  0  0  0
 11  4  1  0  0  0  0
 12  5  1  0  0  0  0
  5  6  2  0  0  0  0
 14  6  1  0  0  0  0
  7  8  1  0  0  0  0
  9  7  1  0  0  0  0
 18  8  1  0  0  0  0
  9 10  1  0  0  0  0
 13  9  2  0  0  0  0
 19 11  2  0  0  0  0
 15 12  2  0  0  0  0
 16 14  2  0  0  0  0
 17 15  1  0  0  0  0
 15 16  1  0  0  0  0
 18 20  2  0  0  0  0
 20 19  1  0  0  0  0
M  END
>  <Mol_ID> (413)
2674

>  <Formula> (413)
C15H10BrN3O

>  <MolWeight> (413)
328.1634

>  <Cat> (413)
S7193

>  <Name> (413)
1-Azakenpaullone

>  <Synonyms> (413)
N/A

>  <Target> (413)
GSK-3

>  <Form> (413)
Free Base

>  <CAS> (413)
676596-65-9

>  <URL> (413)
http://www.selleckchem.com/products/1-azakenpaullone.html

$$$$
ISRIB (trans-isomer).cdx
csChFnd80/05071909292D

 30 32  0  0  0  0  0  0  0  0999 V2000
    1.2124    2.1000    0.0000 C   0  0  0  0  0  0  0  0  0  0  0  0
    1.2124    0.7000    0.0000 C   0  0  0  0  0  0  0  0  0  0  0  0
    2.4249    0.0000    0.0000 C   0  0  0  0  0  0  0  0  0  0  0  0
    3.6373    0.7000    0.0000 C   0  0  0  0  0  0  0  0  0  0  0  0
    3.6373    2.1000    0.0000 C   0  0  0  0  0  0  0  0  0  0  0  0
    2.4249    2.8000    0.0000 C   0  0  0  0  0  0  0  0  0  0  0  0
    0.0000    0.0000    0.0000 Cl  0  0  0  0  0  0  0  0  0  0  0  0
    4.8497    2.8000    0.0000 O   0  0  0  0  0  0  0  0  0  0  0  0
    6.0622    2.1000    0.0000 C   0  0  0  0  0  0  0  0  0  0  0  0
    7.2746    2.8000    0.0000 C   0  0  0  0  0  0  0  0  0  0  0  0
    8.4870    2.1000    0.0000 N   0  0  0  0  0  0  0  0  0  0  0  0
    7.2746    4.2000    0.0000 O   0  0  0  0  0  0  0  0  0  0  0  0
    9.6995    2.8000    0.0000 C   0  0  2  0  0  0  0  0  0  0  0  0
   10.9119    2.1000    0.0000 C   0  0  0  0  0  0  0  0  0  0  0  0
   12.1244    2.8000    0.0000 C   0  0  0  0  0  0  0  0  0  0  0  0
   12.1244    4.2000    0.0000 C   0  0  2  0  0  0  0  0  0  0  0  0
   10.9119    4.9000    0.0000 C   0  0  0  0  0  0  0  0  0  0  0  0
    9.6995    4.2000    0.0000 C   0  0  0  0  0  0  0  0  0  0  0  0
   13.3368    4.9000    0.0000 N   0  0  0  0  0  0  0  0  0  0  0  0
   14.5492    4.2000    0.0000 C   0  0  0  0  0  0  0  0  0  0  0  0
   15.7617    4.9000    0.0000 C   0  0  0  0  0  0  0  0  0  0  0  0
   14.5492    2.8000    0.0000 O   0  0  0  0  0  0  0  0  0  0  0  0
   16.9741    4.2000    0.0000 O   0  0  0  0  0  0  0  0  0  0  0  0
   18.1865    4.9000    0.0000 C   0  0  0  0  0  0  0  0  0  0  0  0
   19.3990    4.2000    0.0000 C   0  0  0  0  0  0  0  0  0  0  0  0
   20.6114    4.9000    0.0000 C   0  0  0  0  0  0  0  0  0  0  0  0
   20.6114    6.3000    0.0000 C   0  0  0  0  0  0  0  0  0  0  0  0
   19.3990    7.0000    0.0000 C   0  0  0  0  0  0  0  0  0  0  0  0
   18.1865    6.3000    0.0000 C   0  0  0  0  0  0  0  0  0  0  0  0
   21.8238    7.0000    0.0000 Cl  0  0  0  0  0  0  0  0  0  0  0  0
  1  2  2  0  0  0  0
  2  3  1  0  0  0  0
  3  4  2  0  0  0  0
  4  5  1  0  0  0  0
  5  6  2  0  0  0  0
  6  1  1  0  0  0  0
  2  7  1  0  0  0  0
  5  8  1  0  0  0  0
  8  9  1  0  0  0  0
  9 10  1  0  0  0  0
 10 11  1  0  0  0  0
 10 12  2  0  0  0  0
 13 11  1  1  0  0  0
 13 14  1  0  0  0  0
 14 15  1  0  0  0  0
 15 16  1  0  0  0  0
 16 17  1  0  0  0  0
 17 18  1  0  0  0  0
 18 13  1  0  0  0  0
 16 19  1  6  0  0  0
 19 20  1  0  0  0  0
 20 21  1  0  0  0  0
 20 22  2  0  0  0  0
 21 23  1  0  0  0  0
 23 24  1  0  0  0  0
 24 25  2  0  0  0  0
 25 26  1  0  0  0  0
 26 27  2  0  0  0  0
 27 28  1  0  0  0  0
 28 29  2  0  0  0  0
 29 24  1  0  0  0  0
 27 30  1  0  0  0  0
M  END
>  <Mol_ID> (414)
2676

>  <Formula> (414)
C22H24Cl2N2O4

>  <MolWeight> (414)
451.34296

>  <Cat> (414)
S7400

>  <Name> (414)
ISRIB (trans-isomer)

>  <Synonyms> (414)
N/A

>  <Target> (414)
PERK

>  <Form> (414)
Free Base

>  <URL> (414)
http://www.selleckchem.com/products/isrib-trans-isomer.html

$$$$
ML167.cdx
csChFnd80/05071909292D

 25 28  0  0  0  0  0  0  0  0999 V2000
    5.6434    4.2000    0.0000 C   0  0  0  0  0  0  0  0  0  0  0  0
    5.6434    2.8000    0.0000 C   0  0  0  0  0  0  0  0  0  0  0  0
    6.8558    2.1000    0.0000 C   0  0  0  0  0  0  0  0  0  0  0  0
    8.0683    2.8000    0.0000 C   0  0  0  0  0  0  0  0  0  0  0  0
    8.0683    4.2000    0.0000 C   0  0  0  0  0  0  0  0  0  0  0  0
    6.8558    4.9000    0.0000 C   0  0  0  0  0  0  0  0  0  0  0  0
    9.2807    2.1000    0.0000 C   0  0  0  0  0  0  0  0  0  0  0  0
   10.4932    2.8000    0.0000 N   0  0  0  0  0  0  0  0  0  0  0  0
   10.4932    4.2000    0.0000 C   0  0  0  0  0  0  0  0  0  0  0  0
    9.2807    4.9000    0.0000 N   0  0  0  0  0  0  0  0  0  0  0  0
    4.4310    2.1000    0.0000 C   0  0  0  0  0  0  0  0  0  0  0  0
    3.1520    2.6694    0.0000 O   0  0  0  0  0  0  0  0  0  0  0  0
    2.2152    1.6290    0.0000 C   0  0  0  0  0  0  0  0  0  0  0  0
    2.9152    0.4166    0.0000 C   0  0  0  0  0  0  0  0  0  0  0  0
    4.2846    0.7077    0.0000 C   0  0  0  0  0  0  0  0  0  0  0  0
    0.8229    1.7754    0.0000 C   0  0  0  0  0  0  0  0  0  0  0  0
    0.0000    0.6427    0.0000 O   0  0  0  0  0  0  0  0  0  0  0  0
    9.2807    0.7000    0.0000 N   0  0  0  0  0  0  0  0  0  0  0  0
   10.4932    0.0000    0.0000 C   0  0  0  0  0  0  0  0  0  0  0  0
   11.7056    0.7000    0.0000 C   0  0  0  0  0  0  0  0  0  0  0  0
   12.9846    0.1306    0.0000 O   0  0  0  0  0  0  0  0  0  0  0  0
   13.9213    1.1710    0.0000 C   0  0  0  0  0  0  0  0  0  0  0  0
   13.2213    2.3834    0.0000 C   0  0  0  0  0  0  0  0  0  0  0  0
   11.8519    2.0923    0.0000 C   0  0  0  0  0  0  0  0  0  0  0  0
   15.3137    1.0246    0.0000 C   0  0  0  0  0  0  0  0  0  0  0  0
  1  2  2  0  0  0  0
  2  3  1  0  0  0  0
  3  4  2  0  0  0  0
  4  5  1  0  0  0  0
  5  6  2  0  0  0  0
  6  1  1  0  0  0  0
  4  7  1  0  0  0  0
  7  8  2  0  0  0  0
  8  9  1  0  0  0  0
  9 10  2  0  0  0  0
 10  5  1  0  0  0  0
  2 11  1  0  0  0  0
 11 12  1  0  0  0  0
 12 13  1  0  0  0  0
 13 14  2  0  0  0  0
 14 15  1  0  0  0  0
 15 11  2  0  0  0  0
 13 16  1  0  0  0  0
 16 17  1  0  0  0  0
  7 18  1  0  0  0  0
 18 19  1  0  0  0  0
 19 20  1  0  0  0  0
 20 21  1  0  0  0  0
 21 22  1  0  0  0  0
 22 23  2  0  0  0  0
 23 24  1  0  0  0  0
 24 20  2  0  0  0  0
 22 25  1  0  0  0  0
M  END
>  <Mol_ID> (415)
2684

>  <Formula> (415)
C19H17N3O3

>  <MolWeight> (415)
335.35658

>  <Cat> (415)
S7509

>  <Name> (415)
ML167

>  <Synonyms> (415)
CID 44968231

>  <Target> (415)
CDK

>  <Form> (415)
Free Base

>  <CAS> (415)
1285702-20-6

>  <URL> (415)
http://www.selleckchem.com/products/ml167.html

$$$$
ML347.cdx
csChFnd80/05071909292D

 27 31  0  0  0  0  0  0  0  0999 V2000
    4.8413    5.8224    0.0000 C   0  0  0  0  0  0  0  0  0  0  0  0
    4.8413    4.4224    0.0000 C   0  0  0  0  0  0  0  0  0  0  0  0
    6.0538    3.7224    0.0000 N   0  0  0  0  0  0  0  0  0  0  0  0
    7.2662    4.4224    0.0000 C   0  0  0  0  0  0  0  0  0  0  0  0
    7.2662    5.8224    0.0000 N   0  0  0  0  0  0  0  0  0  0  0  0
    6.0538    6.5224    0.0000 C   0  0  0  0  0  0  0  0  0  0  0  0
    8.5977    3.9898    0.0000 C   0  0  0  0  0  0  0  0  0  0  0  0
    9.4206    5.1224    0.0000 C   0  0  0  0  0  0  0  0  0  0  0  0
    8.5977    6.2551    0.0000 N   0  0  0  0  0  0  0  0  0  0  0  0
    3.6331    6.5200    0.0000 C   0  0  0  0  0  0  0  0  0  0  0  0
    9.0288    2.6630    0.0000 C   0  0  0  0  0  0  0  0  0  0  0  0
    8.0920    1.6226    0.0000 C   0  0  0  0  0  0  0  0  0  0  0  0
    8.5246    0.2911    0.0000 C   0  0  0  0  0  0  0  0  0  0  0  0
    9.8940    0.0000    0.0000 C   0  0  0  0  0  0  0  0  0  0  0  0
   10.8308    1.0404    0.0000 C   0  0  0  0  0  0  0  0  0  0  0  0
   10.3982    2.3719    0.0000 C   0  0  0  0  0  0  0  0  0  0  0  0
   12.2002    0.7493    0.0000 N   0  0  0  0  0  0  0  0  0  0  0  0
   13.1370    1.7897    0.0000 C   0  0  0  0  0  0  0  0  0  0  0  0
   12.7044    3.1212    0.0000 C   0  0  0  0  0  0  0  0  0  0  0  0
   11.3350    3.4123    0.0000 C   0  0  0  0  0  0  0  0  0  0  0  0
    3.6331    7.9200    0.0000 C   0  0  0  0  0  0  0  0  0  0  0  0
    2.4207    8.6200    0.0000 C   0  0  0  0  0  0  0  0  0  0  0  0
    1.2082    7.9200    0.0000 C   0  0  0  0  0  0  0  0  0  0  0  0
    1.2082    6.5200    0.0000 C   0  0  0  0  0  0  0  0  0  0  0  0
    2.4207    5.8200    0.0000 C   0  0  0  0  0  0  0  0  0  0  0  0
    0.0000    8.6176    0.0000 O   0  0  0  0  0  0  0  0  0  0  0  0
    0.0000   10.0127    0.0000 C   0  0  0  0  0  0  0  0  0  0  0  0
  1  2  1  0  0  0  0
  2  3  2  0  0  0  0
  3  4  1  0  0  0  0
  4  5  1  0  0  0  0
  5  6  1  0  0  0  0
  6  1  2  0  0  0  0
  4  7  2  0  0  0  0
  7  8  1  0  0  0  0
  8  9  2  0  0  0  0
  9  5  1  0  0  0  0
  1 10  1  0  0  0  0
  7 11  1  0  0  0  0
 11 12  2  0  0  0  0
 12 13  1  0  0  0  0
 13 14  2  0  0  0  0
 14 15  1  0  0  0  0
 15 16  2  0  0  0  0
 16 11  1  0  0  0  0
 15 17  1  0  0  0  0
 17 18  2  0  0  0  0
 18 19  1  0  0  0  0
 19 20  2  0  0  0  0
 20 16  1  0  0  0  0
 10 21  2  0  0  0  0
 21 22  1  0  0  0  0
 22 23  2  0  0  0  0
 23 24  1  0  0  0  0
 24 25  2  0  0  0  0
 25 10  1  0  0  0  0
 23 26  1  0  0  0  0
 26 27  1  0  0  0  0
M  END
>  <Mol_ID> (416)
2685

>  <Formula> (416)
C22H16N4O

>  <MolWeight> (416)
352.38864

>  <Cat> (416)
S7148

>  <Name> (416)
ML347

>  <Synonyms> (416)
N/A

>  <Target> (416)
TGF-beta/Smad

>  <Form> (416)
Free Base

>  <CAS> (416)
1062368-49-3

>  <URL> (416)
http://www.selleckchem.com/products/ml347.html

$$$$
GS-9973.cdx
csChFnd80/05071909292D

 31 36  0  0  0  0  0  0  0  0999 V2000
    3.6373    4.2000    0.0000 C   0  0  0  0  0  0  0  0  0  0  0  0
    3.6373    2.8000    0.0000 C   0  0  0  0  0  0  0  0  0  0  0  0
    4.8497    2.1000    0.0000 C   0  0  0  0  0  0  0  0  0  0  0  0
    6.0622    2.8000    0.0000 C   0  0  0  0  0  0  0  0  0  0  0  0
    6.0622    4.2000    0.0000 C   0  0  0  0  0  0  0  0  0  0  0  0
    4.8497    4.9000    0.0000 C   0  0  0  0  0  0  0  0  0  0  0  0
    2.4249    4.9000    0.0000 N   0  0  0  0  0  0  0  0  0  0  0  0
    7.2746    2.1000    0.0000 N   0  0  0  0  0  0  0  0  0  0  0  0
    8.4870    2.8000    0.0000 C   0  0  0  0  0  0  0  0  0  0  0  0
    9.6995    2.1000    0.0000 N   0  0  0  0  0  0  0  0  0  0  0  0
   10.9119    2.8000    0.0000 C   0  0  0  0  0  0  0  0  0  0  0  0
   10.9119    4.2000    0.0000 C   0  0  0  0  0  0  0  0  0  0  0  0
    9.6995    4.9000    0.0000 N   0  0  0  0  0  0  0  0  0  0  0  0
    8.4870    4.2000    0.0000 C   0  0  0  0  0  0  0  0  0  0  0  0
    9.4084    6.2694    0.0000 C   0  0  0  0  0  0  0  0  0  0  0  0
    8.0161    6.4157    0.0000 C   0  0  0  0  0  0  0  0  0  0  0  0
    7.4466    5.1368    0.0000 N   0  0  0  0  0  0  0  0  0  0  0  0
   12.1244    2.1000    0.0000 C   0  0  0  0  0  0  0  0  0  0  0  0
   12.1244    0.7000    0.0000 C   0  0  0  0  0  0  0  0  0  0  0  0
   13.3368    0.0000    0.0000 C   0  0  0  0  0  0  0  0  0  0  0  0
   14.5492    0.7000    0.0000 C   0  0  0  0  0  0  0  0  0  0  0  0
   14.5492    2.1000    0.0000 C   0  0  0  0  0  0  0  0  0  0  0  0
   13.3368    2.8000    0.0000 C   0  0  0  0  0  0  0  0  0  0  0  0
   15.8807    0.2674    0.0000 C   0  0  0  0  0  0  0  0  0  0  0  0
   16.7036    1.4000    0.0000 N   0  0  0  0  0  0  0  0  0  0  0  0
   15.8807    2.5326    0.0000 N   0  0  0  0  0  0  0  0  0  0  0  0
    2.4249    6.3000    0.0000 C   0  0  0  0  0  0  0  0  0  0  0  0
    1.2124    7.0000    0.0000 C   0  0  0  0  0  0  0  0  0  0  0  0
    0.0000    6.3000    0.0000 O   0  0  0  0  0  0  0  0  0  0  0  0
    0.0000    4.9000    0.0000 C   0  0  0  0  0  0  0  0  0  0  0  0
    1.2124    4.2000    0.0000 C   0  0  0  0  0  0  0  0  0  0  0  0
  1  2  2  0  0  0  0
  2  3  1  0  0  0  0
  3  4  2  0  0  0  0
  4  5  1  0  0  0  0
  5  6  2  0  0  0  0
  6  1  1  0  0  0  0
  1  7  1  0  0  0  0
  4  8  1  0  0  0  0
  8  9  1  0  0  0  0
  9 10  2  0  0  0  0
 10 11  1  0  0  0  0
 11 12  2  0  0  0  0
 12 13  1  0  0  0  0
 13 14  1  0  0  0  0
 14  9  1  0  0  0  0
 13 15  1  0  0  0  0
 15 16  2  0  0  0  0
 16 17  1  0  0  0  0
 17 14  2  0  0  0  0
 11 18  1  0  0  0  0
 18 19  2  0  0  0  0
 19 20  1  0  0  0  0
 20 21  2  0  0  0  0
 21 22  1  0  0  0  0
 22 23  2  0  0  0  0
 23 18  1  0  0  0  0
 21 24  1  0  0  0  0
 24 25  2  0  0  0  0
 25 26  1  0  0  0  0
 26 22  1  0  0  0  0
  7 27  1  0  0  0  0
 27 28  1  0  0  0  0
 28 29  1  0  0  0  0
 29 30  1  0  0  0  0
 30 31  1  0  0  0  0
 31  7  1  0  0  0  0
M  END
>  <Mol_ID> (417)
2687

>  <Formula> (417)
C23H21N7O

>  <MolWeight> (417)
411.45914

>  <Cat> (417)
S7523

>  <Name> (417)
Entospletinib (GS-9973)

>  <Synonyms> (417)
N/A

>  <Target> (417)
Syk

>  <Form> (417)
Free Base

>  <CAS> (417)
1229208-44-9

>  <URL> (417)
http://www.selleckchem.com/products/gs-9973.html

$$$$
DMH1.cdx
csChFnd80/05071909292D

 29 33  0  0  0  0  0  0  0  0999 V2000
    6.0496    5.8224    0.0000 C   0  0  0  0  0  0  0  0  0  0  0  0
    6.0496    4.4224    0.0000 C   0  0  0  0  0  0  0  0  0  0  0  0
    7.2620    3.7224    0.0000 N   0  0  0  0  0  0  0  0  0  0  0  0
    8.4744    4.4224    0.0000 C   0  0  0  0  0  0  0  0  0  0  0  0
    8.4744    5.8224    0.0000 N   0  0  0  0  0  0  0  0  0  0  0  0
    7.2620    6.5224    0.0000 C   0  0  0  0  0  0  0  0  0  0  0  0
    9.8059    3.9898    0.0000 C   0  0  0  0  0  0  0  0  0  0  0  0
   10.6288    5.1224    0.0000 C   0  0  0  0  0  0  0  0  0  0  0  0
    9.8059    6.2551    0.0000 N   0  0  0  0  0  0  0  0  0  0  0  0
    4.8413    6.5200    0.0000 C   0  0  0  0  0  0  0  0  0  0  0  0
   10.2370    2.6630    0.0000 C   0  0  0  0  0  0  0  0  0  0  0  0
    9.3002    1.6226    0.0000 C   0  0  0  0  0  0  0  0  0  0  0  0
    9.7329    0.2911    0.0000 C   0  0  0  0  0  0  0  0  0  0  0  0
   11.1023    0.0000    0.0000 N   0  0  0  0  0  0  0  0  0  0  0  0
   12.0391    1.0404    0.0000 C   0  0  0  0  0  0  0  0  0  0  0  0
   11.6064    2.3719    0.0000 C   0  0  0  0  0  0  0  0  0  0  0  0
   13.4085    0.7493    0.0000 C   0  0  0  0  0  0  0  0  0  0  0  0
   14.3452    1.7897    0.0000 C   0  0  0  0  0  0  0  0  0  0  0  0
   13.9126    3.1212    0.0000 C   0  0  0  0  0  0  0  0  0  0  0  0
   12.5432    3.4123    0.0000 C   0  0  0  0  0  0  0  0  0  0  0  0
    4.8413    7.9200    0.0000 C   0  0  0  0  0  0  0  0  0  0  0  0
    3.6289    8.6200    0.0000 C   0  0  0  0  0  0  0  0  0  0  0  0
    2.4165    7.9200    0.0000 C   0  0  0  0  0  0  0  0  0  0  0  0
    2.4165    6.5200    0.0000 C   0  0  0  0  0  0  0  0  0  0  0  0
    3.6289    5.8200    0.0000 C   0  0  0  0  0  0  0  0  0  0  0  0
    1.2082    8.6176    0.0000 O   0  0  0  0  0  0  0  0  0  0  0  0
    1.2082   10.0127    0.0000 C   0  0  0  0  0  0  0  0  0  0  0  0
    2.4165   10.7103    0.0000 C   0  0  0  0  0  0  0  0  0  0  0  0
    0.0000   10.7103    0.0000 C   0  0  0  0  0  0  0  0  0  0  0  0
  1  2  1  0  0  0  0
  2  3  2  0  0  0  0
  3  4  1  0  0  0  0
  4  5  1  0  0  0  0
  5  6  1  0  0  0  0
  6  1  2  0  0  0  0
  4  7  2  0  0  0  0
  7  8  1  0  0  0  0
  8  9  2  0  0  0  0
  9  5  1  0  0  0  0
  1 10  1  0  0  0  0
  7 11  1  0  0  0  0
 11 12  2  0  0  0  0
 12 13  1  0  0  0  0
 13 14  2  0  0  0  0
 14 15  1  0  0  0  0
 15 16  2  0  0  0  0
 16 11  1  0  0  0  0
 15 17  1  0  0  0  0
 17 18  2  0  0  0  0
 18 19  1  0  0  0  0
 19 20  2  0  0  0  0
 20 16  1  0  0  0  0
 10 21  2  0  0  0  0
 21 22  1  0  0  0  0
 22 23  2  0  0  0  0
 23 24  1  0  0  0  0
 24 25  2  0  0  0  0
 25 10  1  0  0  0  0
 23 26  1  0  0  0  0
 26 27  1  0  0  0  0
 27 28  1  0  0  0  0
 27 29  1  0  0  0  0
M  END
>  <Mol_ID> (418)
2689

>  <Formula> (418)
C24H20N4O

>  <MolWeight> (418)
380.4418

>  <Cat> (418)
S7146

>  <Name> (418)
DMH1

>  <Synonyms> (418)
N/A

>  <Target> (418)
TGF-beta/Smad

>  <Form> (418)
Free Base

>  <CAS> (418)
1206711-16-1

>  <URL> (418)
http://www.selleckchem.com/products/dmh1.html

$$$$
LDN-212854.cdx
csChFnd80/05071909292D

 31 36  0  0  0  0  0  0  0  0999 V2000
    7.2578    5.8224    0.0000 C   0  0  0  0  0  0  0  0  0  0  0  0
    7.2578    4.4224    0.0000 C   0  0  0  0  0  0  0  0  0  0  0  0
    8.4702    3.7224    0.0000 N   0  0  0  0  0  0  0  0  0  0  0  0
    9.6827    4.4224    0.0000 C   0  0  0  0  0  0  0  0  0  0  0  0
    9.6827    5.8224    0.0000 N   0  0  0  0  0  0  0  0  0  0  0  0
    8.4702    6.5224    0.0000 C   0  0  0  0  0  0  0  0  0  0  0  0
   11.0141    3.9898    0.0000 C   0  0  0  0  0  0  0  0  0  0  0  0
   11.8370    5.1224    0.0000 C   0  0  0  0  0  0  0  0  0  0  0  0
   11.0141    6.2551    0.0000 N   0  0  0  0  0  0  0  0  0  0  0  0
    6.0496    6.5200    0.0000 C   0  0  0  0  0  0  0  0  0  0  0  0
   11.4453    2.6630    0.0000 C   0  0  0  0  0  0  0  0  0  0  0  0
   10.5085    1.6226    0.0000 C   0  0  0  0  0  0  0  0  0  0  0  0
   10.9411    0.2911    0.0000 C   0  0  0  0  0  0  0  0  0  0  0  0
   12.3105    0.0000    0.0000 C   0  0  0  0  0  0  0  0  0  0  0  0
   13.2473    1.0404    0.0000 C   0  0  0  0  0  0  0  0  0  0  0  0
   12.8147    2.3719    0.0000 C   0  0  0  0  0  0  0  0  0  0  0  0
   14.6167    0.7493    0.0000 N   0  0  0  0  0  0  0  0  0  0  0  0
   15.5535    1.7897    0.0000 C   0  0  0  0  0  0  0  0  0  0  0  0
   15.1209    3.1212    0.0000 C   0  0  0  0  0  0  0  0  0  0  0  0
   13.7514    3.4123    0.0000 C   0  0  0  0  0  0  0  0  0  0  0  0
    6.0496    7.9200    0.0000 C   0  0  0  0  0  0  0  0  0  0  0  0
    4.8371    8.6200    0.0000 C   0  0  0  0  0  0  0  0  0  0  0  0
    3.6247    7.9200    0.0000 C   0  0  0  0  0  0  0  0  0  0  0  0
    3.6247    6.5200    0.0000 C   0  0  0  0  0  0  0  0  0  0  0  0
    4.8371    5.8200    0.0000 C   0  0  0  0  0  0  0  0  0  0  0  0
    2.4165    8.6176    0.0000 N   0  0  0  0  0  0  0  0  0  0  0  0
    2.4165   10.0127    0.0000 C   0  0  0  0  0  0  0  0  0  0  0  0
    1.2082   10.7103    0.0000 C   0  0  0  0  0  0  0  0  0  0  0  0
    0.0000   10.0127    0.0000 N   0  0  0  0  0  0  0  0  0  0  0  0
    0.0000    8.6176    0.0000 C   0  0  0  0  0  0  0  0  0  0  0  0
    1.2082    7.9200    0.0000 C   0  0  0  0  0  0  0  0  0  0  0  0
  1  2  1  0  0  0  0
  2  3  2  0  0  0  0
  3  4  1  0  0  0  0
  4  5  1  0  0  0  0
  5  6  1  0  0  0  0
  6  1  2  0  0  0  0
  4  7  2  0  0  0  0
  7  8  1  0  0  0  0
  8  9  2  0  0  0  0
  9  5  1  0  0  0  0
  1 10  1  0  0  0  0
  7 11  1  0  0  0  0
 11 12  2  0  0  0  0
 12 13  1  0  0  0  0
 13 14  2  0  0  0  0
 14 15  1  0  0  0  0
 15 16  2  0  0  0  0
 16 11  1  0  0  0  0
 15 17  1  0  0  0  0
 17 18  2  0  0  0  0
 18 19  1  0  0  0  0
 19 20  2  0  0  0  0
 20 16  1  0  0  0  0
 10 21  2  0  0  0  0
 21 22  1  0  0  0  0
 22 23  2  0  0  0  0
 23 24  1  0  0  0  0
 24 25  2  0  0  0  0
 25 10  1  0  0  0  0
 23 26  1  0  0  0  0
 26 27  1  0  0  0  0
 27 28  1  0  0  0  0
 28 29  1  0  0  0  0
 29 30  1  0  0  0  0
 30 31  1  0  0  0  0
 31 26  1  0  0  0  0
M  END
>  <Mol_ID> (419)
2690

>  <Formula> (419)
C25H22N6

>  <MolWeight> (419)
406.48238

>  <Cat> (419)
S7147

>  <Name> (419)
LDN-212854

>  <Synonyms> (419)
BMP Inhibitor III

>  <Target> (419)
TGF-beta/Smad

>  <Form> (419)
Free Base

>  <CAS> (419)
1432597-26-6

>  <URL> (419)
http://www.selleckchem.com/products/ldn-212854.html

$$$$
CGP 57380.cdx
csChFnd80/05071909292D

 18 20  0  0  0  0  0  0  0  0999 V2000
    2.4249    2.1000    0.0000 C   0  0  0  0  0  0  0  0  0  0  0  0
    3.7564    2.5326    0.0000 C   0  0  0  0  0  0  0  0  0  0  0  0
    2.4249    0.7000    0.0000 C   0  0  0  0  0  0  0  0  0  0  0  0
    1.2124    2.8000    0.0000 C   0  0  0  0  0  0  0  0  0  0  0  0
    4.1890    3.8641    0.0000 N   0  0  0  0  0  0  0  0  0  0  0  0
    4.5793    1.4000    0.0000 N   0  0  0  0  0  0  0  0  0  0  0  0
    3.7564    0.2674    0.0000 N   0  0  0  0  0  0  0  0  0  0  0  0
    1.2124    0.0000    0.0000 N   0  0  0  0  0  0  0  0  0  0  0  0
    0.0000    2.1000    0.0000 N   0  0  0  0  0  0  0  0  0  0  0  0
    1.2124    4.2000    0.0000 N   0  0  0  0  0  0  0  0  0  0  0  0
    5.5584    4.1552    0.0000 C   0  0  0  0  0  0  0  0  0  0  0  0
    0.0000    0.7000    0.0000 C   0  0  0  0  0  0  0  0  0  0  0  0
    6.4952    3.1148    0.0000 C   0  0  0  0  0  0  0  0  0  0  0  0
    5.9910    5.4867    0.0000 C   0  0  0  0  0  0  0  0  0  0  0  0
    7.8646    3.4059    0.0000 C   0  0  0  0  0  0  0  0  0  0  0  0
    7.3604    5.7777    0.0000 C   0  0  0  0  0  0  0  0  0  0  0  0
    8.2972    4.7373    0.0000 C   0  0  0  0  0  0  0  0  0  0  0  0
    9.6666    5.0284    0.0000 F   0  0  0  0  0  0  0  0  0  0  0  0
  1  2  1  0  0  0  0
  1  3  1  0  0  0  0
  1  4  2  0  0  0  0
  2  5  1  0  0  0  0
  2  6  2  0  0  0  0
  3  7  1  0  0  0  0
  3  8  2  0  0  0  0
  4  9  1  0  0  0  0
  4 10  1  0  0  0  0
  5 11  1  0  0  0  0
  6  7  1  0  0  0  0
  8 12  1  0  0  0  0
  9 12  2  0  0  0  0
 11 13  2  0  0  0  0
 11 14  1  0  0  0  0
 13 15  1  0  0  0  0
 14 16  2  0  0  0  0
 15 17  2  0  0  0  0
 16 17  1  0  0  0  0
 17 18  1  0  0  0  0
M  END
>  <Mol_ID> (420)
2692

>  <Formula> (420)
C11H9FN6

>  <MolWeight> (420)
244.2277632

>  <Cat> (420)
S7421

>  <Name> (420)
CGP 57380

>  <Synonyms> (420)
N/A

>  <Target> (420)
MNK

>  <Form> (420)
Free Base

>  <CAS> (420)
522629-08-9

>  <URL> (420)
http://www.selleckchem.com/products/cgp57380.html

$$$$
LM-3093 AZD9291.cdx
csChFnd80/05071909292D

 37 40  0  0  0  0  0  0  0  0999 V2000
    2.2264    4.2000    0.0000 C   0  0  0  0  0  0  0  0  0  0  0  0
    2.2264    2.8000    0.0000 C   0  0  0  0  0  0  0  0  0  0  0  0
    3.4388    2.1000    0.0000 N   0  0  0  0  0  0  0  0  0  0  0  0
    4.6513    2.8000    0.0000 C   0  0  0  0  0  0  0  0  0  0  0  0
    4.6513    4.2000    0.0000 N   0  0  0  0  0  0  0  0  0  0  0  0
    3.4388    4.9000    0.0000 C   0  0  0  0  0  0  0  0  0  0  0  0
    3.4388    6.3000    0.0000 C   0  0  0  0  0  0  0  0  0  0  0  0
    5.8637    2.1000    0.0000 N   0  0  0  0  0  0  0  0  0  0  0  0
    7.0761    2.8000    0.0000 C   0  0  0  0  0  0  0  0  0  0  0  0
    4.5714    7.1229    0.0000 C   0  0  0  0  0  0  0  0  0  0  0  0
    4.1388    8.4544    0.0000 N   0  0  0  0  0  0  0  0  0  0  0  0
    2.7388    8.4544    0.0000 C   0  0  0  0  0  0  0  0  0  0  0  0
    2.3062    7.1229    0.0000 C   0  0  0  0  0  0  0  0  0  0  0  0
    1.8020    9.4948    0.0000 C   0  0  0  0  0  0  0  0  0  0  0  0
    0.4326    9.2037    0.0000 C   0  0  0  0  0  0  0  0  0  0  0  0
    0.0000    7.8722    0.0000 C   0  0  0  0  0  0  0  0  0  0  0  0
    0.9368    6.8318    0.0000 C   0  0  0  0  0  0  0  0  0  0  0  0
    8.2886    2.1000    0.0000 C   0  0  0  0  0  0  0  0  0  0  0  0
    9.5010    2.8000    0.0000 C   0  0  0  0  0  0  0  0  0  0  0  0
    9.5010    4.2000    0.0000 C   0  0  0  0  0  0  0  0  0  0  0  0
    8.2886    4.9000    0.0000 C   0  0  0  0  0  0  0  0  0  0  0  0
    7.0761    4.2000    0.0000 C   0  0  0  0  0  0  0  0  0  0  0  0
    8.2886    6.3000    0.0000 N   0  0  0  0  0  0  0  0  0  0  0  0
    8.2886    0.7000    0.0000 O   0  0  0  0  0  0  0  0  0  0  0  0
    7.0761    0.0000    0.0000 C   0  0  0  0  0  0  0  0  0  0  0  0
   10.7134    4.9000    0.0000 N   0  0  0  0  0  0  0  0  0  0  0  0
   11.9259    4.2000    0.0000 C   0  0  0  0  0  0  0  0  0  0  0  0
   10.7134    6.3000    0.0000 C   0  0  0  0  0  0  0  0  0  0  0  0
   11.9259    2.8000    0.0000 C   0  0  0  0  0  0  0  0  0  0  0  0
   13.1383    2.1000    0.0000 N   0  0  0  0  0  0  0  0  0  0  0  0
   13.1383    0.7000    0.0000 C   0  0  0  0  0  0  0  0  0  0  0  0
    7.0761    7.0000    0.0000 C   0  0  0  0  0  0  0  0  0  0  0  0
    7.0761    8.4000    0.0000 C   0  0  0  0  0  0  0  0  0  0  0  0
    5.8637    6.3000    0.0000 O   0  0  0  0  0  0  0  0  0  0  0  0
    8.2886    9.1000    0.0000 C   0  0  0  0  0  0  0  0  0  0  0  0
   14.3465    2.7976    0.0000 C   0  0  0  0  0  0  0  0  0  0  0  0
    4.9589    9.5831    0.0000 C   0  0  0  0  0  0  0  0  0  0  0  0
  1  2  2  0  0  0  0
  2  3  1  0  0  0  0
  3  4  2  0  0  0  0
  4  5  1  0  0  0  0
  5  6  2  0  0  0  0
  6  1  1  0  0  0  0
  6  7  1  0  0  0  0
  4  8  1  0  0  0  0
  8  9  1  0  0  0  0
  7 10  2  0  0  0  0
 10 11  1  0  0  0  0
 11 12  1  0  0  0  0
 12 13  2  0  0  0  0
 13  7  1  0  0  0  0
 12 14  1  0  0  0  0
 14 15  2  0  0  0  0
 15 16  1  0  0  0  0
 16 17  2  0  0  0  0
 17 13  1  0  0  0  0
  9 18  2  0  0  0  0
 18 19  1  0  0  0  0
 19 20  2  0  0  0  0
 20 21  1  0  0  0  0
 21 22  2  0  0  0  0
 22  9  1  0  0  0  0
 21 23  1  0  0  0  0
 18 24  1  0  0  0  0
 24 25  1  0  0  0  0
 20 26  1  0  0  0  0
 26 27  1  0  0  0  0
 26 28  1  0  0  0  0
 27 29  1  0  0  0  0
 29 30  1  0  0  0  0
 30 31  1  0  0  0  0
 23 32  1  0  0  0  0
 32 33  1  0  0  0  0
 32 34  2  0  0  0  0
 33 35  2  0  0  0  0
 30 36  1  0  0  0  0
 11 37  1  0  0  0  0
M  END
>  <Mol_ID> (421)
2701

>  <Formula> (421)
C28H33N7O2

>  <MolWeight> (421)
499.60732

>  <Cat> (421)
S7297

>  <Name> (421)
AZD9291

>  <Synonyms> (421)
N/A

>  <Target> (421)
EGFR

>  <Form> (421)
Free Base

>  <CAS> (421)
1421373-65-0

>  <URL> (421)
http://www.selleckchem.com/products/azd9291.html

$$$$
LM-3282 MPI-0479605.cdx
csChFnd80/05071909292D

 30 34  0  0  0  0  0  0  0  0999 V2000
    3.6373    2.1000    0.0000 C   0  0  0  0  0  0  0  0  0  0  0  0
    3.6373    0.7000    0.0000 C   0  0  0  0  0  0  0  0  0  0  0  0
    4.8497    0.0000    0.0000 C   0  0  0  0  0  0  0  0  0  0  0  0
    6.0622    0.7000    0.0000 C   0  0  0  0  0  0  0  0  0  0  0  0
    6.0622    2.1000    0.0000 C   0  0  0  0  0  0  0  0  0  0  0  0
    4.8497    2.8000    0.0000 C   0  0  0  0  0  0  0  0  0  0  0  0
    2.4249    2.8000    0.0000 N   0  0  0  0  0  0  0  0  0  0  0  0
    7.2746    2.8000    0.0000 C   0  0  0  0  0  0  0  0  0  0  0  0
    7.2746    0.0000    0.0000 N   0  0  0  0  0  0  0  0  0  0  0  0
    8.4870    0.7000    0.0000 C   0  0  0  0  0  0  0  0  0  0  0  0
    9.6995    0.0000    0.0000 N   0  0  0  0  0  0  0  0  0  0  0  0
   10.9119    0.7000    0.0000 C   0  0  0  0  0  0  0  0  0  0  0  0
   10.9119    2.1000    0.0000 C   0  0  0  0  0  0  0  0  0  0  0  0
    9.6995    2.8000    0.0000 C   0  0  0  0  0  0  0  0  0  0  0  0
    8.4870    2.1000    0.0000 N   0  0  0  0  0  0  0  0  0  0  0  0
   12.2434    0.2674    0.0000 N   0  0  0  0  0  0  0  0  0  0  0  0
   13.0663    1.4000    0.0000 C   0  0  0  0  0  0  0  0  0  0  0  0
   12.2434    2.5326    0.0000 N   0  0  0  0  0  0  0  0  0  0  0  0
    9.6995    4.2000    0.0000 N   0  0  0  0  0  0  0  0  0  0  0  0
   10.9119    4.9000    0.0000 C   0  0  0  0  0  0  0  0  0  0  0  0
   12.1244    4.2000    0.0000 C   0  0  0  0  0  0  0  0  0  0  0  0
   13.3368    4.9000    0.0000 C   0  0  0  0  0  0  0  0  0  0  0  0
   13.3368    6.3000    0.0000 C   0  0  0  0  0  0  0  0  0  0  0  0
   12.1244    7.0000    0.0000 C   0  0  0  0  0  0  0  0  0  0  0  0
   10.9119    6.3000    0.0000 C   0  0  0  0  0  0  0  0  0  0  0  0
    2.4249    4.2000    0.0000 C   0  0  0  0  0  0  0  0  0  0  0  0
    1.2124    4.9000    0.0000 C   0  0  0  0  0  0  0  0  0  0  0  0
    0.0000    4.2000    0.0000 O   0  0  0  0  0  0  0  0  0  0  0  0
    0.0000    2.8000    0.0000 C   0  0  0  0  0  0  0  0  0  0  0  0
    1.2124    2.1000    0.0000 C   0  0  0  0  0  0  0  0  0  0  0  0
  1  2  2  0  0  0  0
  2  3  1  0  0  0  0
  3  4  2  0  0  0  0
  4  5  1  0  0  0  0
  5  6  2  0  0  0  0
  6  1  1  0  0  0  0
  1  7  1  0  0  0  0
  5  8  1  0  0  0  0
  4  9  1  0  0  0  0
  9 10  1  0  0  0  0
 10 11  2  0  0  0  0
 11 12  1  0  0  0  0
 12 13  2  0  0  0  0
 13 14  1  0  0  0  0
 14 15  2  0  0  0  0
 15 10  1  0  0  0  0
 12 16  1  0  0  0  0
 16 17  1  0  0  0  0
 17 18  2  0  0  0  0
 18 13  1  0  0  0  0
 14 19  1  0  0  0  0
 19 20  1  0  0  0  0
 20 21  1  0  0  0  0
 21 22  1  0  0  0  0
 22 23  1  0  0  0  0
 23 24  1  0  0  0  0
 24 25  1  0  0  0  0
 25 20  1  0  0  0  0
  7 26  1  0  0  0  0
 26 27  1  0  0  0  0
 27 28  1  0  0  0  0
 28 29  1  0  0  0  0
 29 30  1  0  0  0  0
 30  7  1  0  0  0  0
M  END
>  <Mol_ID> (422)
2702

>  <Formula> (422)
C22H29N7O

>  <MolWeight> (422)
407.51196

>  <Cat> (422)
S7488

>  <Name> (422)
MPI-0479605

>  <Synonyms> (422)
N/A

>  <Target> (422)
Kinesin

>  <Form> (422)
Free Base

>  <CAS> (422)
1246529-32-7

>  <URL> (422)
http://www.selleckchem.com/products/mpi-0479605.html

$$$$
GNF-5.cdx
csChFnd80/05071909292D

 30 32  0  0  0  0  0  0  0  0999 V2000
    4.1891    1.2124    0.0000 C   0  0  0  0  0  0  0  0  0  0  0  0
    4.8877    2.4225    0.0000 C   0  0  0  0  0  0  0  0  0  0  0  0
    6.2835    2.4225    0.0000 C   0  0  0  0  0  0  0  0  0  0  0  0
    6.9931    3.6515    0.0000 C   0  0  0  0  0  0  0  0  0  0  0  0
    6.2879    4.8729    0.0000 C   0  0  0  0  0  0  0  0  0  0  0  0
    4.8816    4.8729    0.0000 C   0  0  0  0  0  0  0  0  0  0  0  0
    4.1753    3.6496    0.0000 C   0  0  0  0  0  0  0  0  0  0  0  0
    4.8891    0.0000    0.0000 O   0  0  0  0  0  0  0  0  0  0  0  0
    2.7945    1.2124    0.0000 N   0  0  0  0  0  0  0  0  0  0  0  0
   10.4837    4.8855    0.0000 C   0  0  0  0  0  0  0  0  0  0  0  0
    9.0849    4.8855    0.0000 N   0  0  0  0  0  0  0  0  0  0  0  0
    8.3725    3.6515    0.0000 C   0  0  0  0  0  0  0  0  0  0  0  0
    9.0643    2.4532    0.0000 C   0  0  0  0  0  0  0  0  0  0  0  0
   10.4875    2.4532    0.0000 C   0  0  0  0  0  0  0  0  0  0  0  0
   11.1945    3.6778    0.0000 N   0  0  0  0  0  0  0  0  0  0  0  0
   11.1759    1.2609    0.0000 N   0  0  0  0  0  0  0  0  0  0  0  0
   12.5888    1.2609    0.0000 C   0  0  0  0  0  0  0  0  0  0  0  0
   13.2859    0.0535    0.0000 C   0  0  0  0  0  0  0  0  0  0  0  0
   14.6919    0.0535    0.0000 C   0  0  0  0  0  0  0  0  0  0  0  0
   15.3940    1.2695    0.0000 C   0  0  0  0  0  0  0  0  0  0  0  0
   14.6924    2.4845    0.0000 C   0  0  0  0  0  0  0  0  0  0  0  0
   13.2899    2.4845    0.0000 C   0  0  0  0  0  0  0  0  0  0  0  0
   16.7903    1.2695    0.0000 O   0  0  0  0  0  0  0  0  0  0  0  0
   17.4892    2.4800    0.0000 C   0  0  0  0  0  0  0  0  0  0  0  0
   18.6991    1.7815    0.0000 F   0  0  0  0  0  0  0  0  0  0  0  0
   16.2789    3.1788    0.0000 F   0  0  0  0  0  0  0  0  0  0  0  0
   18.1879    3.6901    0.0000 F   0  0  0  0  0  0  0  0  0  0  0  0
    2.0965    2.4214    0.0000 C   0  0  0  0  0  0  0  0  0  0  0  0
    0.6985    2.4214    0.0000 C   0  0  0  0  0  0  0  0  0  0  0  0
    0.0000    3.6312    0.0000 O   0  0  0  0  0  0  0  0  0  0  0  0
  1  2  1  0  0  0  0
  2  3  1  0  0  0  0
  3  4  2  0  0  0  0
  4  5  1  0  0  0  0
  5  6  2  0  0  0  0
  6  7  1  0  0  0  0
  2  7  2  0  0  0  0
  1  8  2  0  0  0  0
  1  9  1  0  0  0  0
 10 11  2  0  0  0  0
 11 12  1  0  0  0  0
 12 13  2  0  0  0  0
 13 14  1  0  0  0  0
 14 15  2  0  0  0  0
 10 15  1  0  0  0  0
 17 18  1  0  0  0  0
 18 19  2  0  0  0  0
 19 20  1  0  0  0  0
 20 21  2  0  0  0  0
 21 22  1  0  0  0  0
 17 22  2  0  0  0  0
 23 24  1  0  0  0  0
 24 25  1  0  0  0  0
 24 26  1  0  0  0  0
 24 27  1  0  0  0  0
 20 23  1  0  0  0  0
 16 17  1  0  0  0  0
 14 16  1  0  0  0  0
  4 12  1  0  0  0  0
 28 29  1  0  0  0  0
 29 30  1  0  0  0  0
  9 28  1  0  0  0  0
M  END
>  <Mol_ID> (423)
2705

>  <Formula> (423)
C20H17F3N4O3

>  <MolWeight> (423)
418.3691896

>  <Cat> (423)
S7526

>  <Name> (423)
GNF-5

>  <Synonyms> (423)
N/A

>  <Target> (423)
Bcr-Abl

>  <Form> (423)
Free Base

>  <CAS> (423)
778277-15-9

>  <URL> (423)
http://www.selleckchem.com/products/gnf-5.html

$$$$
KN-62.cdx
csChFnd80/05071909292D

 51 57  0  0  0  0  0  0  0  0999 V2000
    2.1600    2.4217    0.0000 C   0  0  0  0  0  0  0  0  0  0  0  0
    2.9217    3.5965    0.0000 C   0  0  0  0  0  0  0  0  0  0  0  0
    2.7964    1.1748    0.0000 C   0  0  0  0  0  0  0  0  0  0  0  0
    0.7619    2.4942    0.0000 C   0  0  0  0  0  0  0  0  0  0  0  0
    2.2875    4.8392    0.0000 S   0  0  0  0  0  0  0  0  0  0  0  0
    4.3199    3.5241    0.0000 C   0  0  0  0  0  0  0  0  0  0  0  0
    4.1946    1.1024    0.0000 C   0  0  0  0  0  0  0  0  0  0  0  0
    2.0347    0.0000    0.0000 C   0  0  0  0  0  0  0  0  0  0  0  0
    0.0000    1.3195    0.0000 C   0  0  0  0  0  0  0  0  0  0  0  0
    3.4958    5.5368    0.0000 N   0  0  0  0  0  0  0  0  0  0  0  0
    1.5899    6.0475    0.0000 O   0  0  0  0  0  0  0  0  0  0  0  0
    1.0792    4.1416    0.0000 O   0  0  0  0  0  0  0  0  0  0  0  0
    4.9564    2.2769    0.0000 C   0  0  0  0  0  0  0  0  0  0  0  0
    0.6364    0.0724    0.0000 N   0  0  0  0  0  0  0  0  0  0  0  0
    3.4958    6.9320    0.0000 C   0  0  2  0  0  0  0  0  0  0  0  0
    4.7041    4.8392    0.0000 C   0  0  0  0  0  0  0  0  0  0  0  0
    2.2875    7.6296    0.0000 C   0  0  0  0  0  0  0  0  0  0  0  0
    4.7041    7.6296    0.0000 C   0  0  0  0  0  0  0  0  0  0  0  0
    2.2875    9.0248    0.0000 N   0  0  0  0  0  0  0  0  0  0  0  0
    1.0792    6.9320    0.0000 O   0  0  0  0  0  0  0  0  0  0  0  0
    5.9124    6.9320    0.0000 C   0  0  0  0  0  0  0  0  0  0  0  0
    3.5000    9.7248    0.0000 C   0  0  0  0  0  0  0  0  0  0  0  0
    1.0750    9.7248    0.0000 C   0  0  0  0  0  0  0  0  0  0  0  0
    5.9124    5.5319    0.0000 C   0  0  0  0  0  0  0  0  0  0  0  0
    7.1249    7.6320    0.0000 C   0  0  0  0  0  0  0  0  0  0  0  0
    3.5001   11.1247    0.0000 C   0  0  0  0  0  0  0  0  0  0  0  0
    1.0750   11.1250    0.0000 C   0  0  0  0  0  0  0  0  0  0  0  0
    7.1250    4.8319    0.0000 C   0  0  0  0  0  0  0  0  0  0  0  0
    8.3373    6.9321    0.0000 C   0  0  0  0  0  0  0  0  0  0  0  0
    2.2877   11.8249    0.0000 N   0  0  0  0  0  0  0  0  0  0  0  0
    8.3374    5.5320    0.0000 C   0  0  0  0  0  0  0  0  0  0  0  0
    2.2877   13.2201    0.0000 C   0  0  0  0  0  0  0  0  0  0  0  0
    9.5456    4.8344    0.0000 O   0  0  0  0  0  0  0  0  0  0  0  0
    3.5004   13.9200    0.0000 C   0  0  0  0  0  0  0  0  0  0  0  0
    1.0754   13.9203    0.0000 C   0  0  0  0  0  0  0  0  0  0  0  0
    9.5456    3.4392    0.0000 S   0  0  0  0  0  0  0  0  0  0  0  0
    3.5007   15.3200    0.0000 C   0  0  0  0  0  0  0  0  0  0  0  0
    1.0757   15.3203    0.0000 C   0  0  0  0  0  0  0  0  0  0  0  0
   10.9408    3.4392    0.0000 C   0  0  0  0  0  0  0  0  0  0  0  0
    8.1504    3.4392    0.0000 O   0  0  0  0  0  0  0  0  0  0  0  0
    9.5456    2.0440    0.0000 O   0  0  0  0  0  0  0  0  0  0  0  0
    2.2883   16.0203    0.0000 C   0  0  0  0  0  0  0  0  0  0  0  0
   11.6410    4.6517    0.0000 C   0  0  0  0  0  0  0  0  0  0  0  0
   11.6409    2.2268    0.0000 C   0  0  0  0  0  0  0  0  0  0  0  0
   13.0409    4.6516    0.0000 C   0  0  0  0  0  0  0  0  0  0  0  0
   10.9410    5.8643    0.0000 C   0  0  0  0  0  0  0  0  0  0  0  0
   13.0408    2.2267    0.0000 C   0  0  0  0  0  0  0  0  0  0  0  0
   13.7409    3.4393    0.0000 C   0  0  0  0  0  0  0  0  0  0  0  0
   13.7410    5.8642    0.0000 C   0  0  0  0  0  0  0  0  0  0  0  0
   11.6409    7.0767    0.0000 C   0  0  0  0  0  0  0  0  0  0  0  0
   13.0410    7.0767    0.0000 N   0  0  0  0  0  0  0  0  0  0  0  0
  1  2  1  0  0  0  0
  1  3  2  0  0  0  0
  1  4  1  0  0  0  0
  2  5  1  0  0  0  0
  2  6  2  0  0  0  0
  3  7  1  0  0  0  0
  3  8  1  0  0  0  0
  4  9  2  0  0  0  0
  5 10  1  0  0  0  0
  5 11  2  0  0  0  0
  5 12  2  0  0  0  0
  6 13  1  0  0  0  0
  7 13  2  0  0  0  0
  8 14  2  0  0  0  0
  9 14  1  0  0  0  0
 15 10  1  6  0  0  0
 10 16  1  0  0  0  0
 15 17  1  0  0  0  0
 15 18  1  0  0  0  0
 17 19  1  0  0  0  0
 17 20  2  0  0  0  0
 18 21  1  0  0  0  0
 19 22  1  0  0  0  0
 19 23  1  0  0  0  0
 21 24  2  0  0  0  0
 21 25  1  0  0  0  0
 22 26  1  0  0  0  0
 23 27  1  0  0  0  0
 24 28  1  0  0  0  0
 25 29  2  0  0  0  0
 26 30  1  0  0  0  0
 27 30  1  0  0  0  0
 28 31  2  0  0  0  0
 29 31  1  0  0  0  0
 30 32  1  0  0  0  0
 31 33  1  0  0  0  0
 32 34  2  0  0  0  0
 32 35  1  0  0  0  0
 33 36  1  0  0  0  0
 34 37  1  0  0  0  0
 35 38  2  0  0  0  0
 36 39  1  0  0  0  0
 36 40  2  0  0  0  0
 36 41  2  0  0  0  0
 37 42  2  0  0  0  0
 38 42  1  0  0  0  0
 39 43  2  0  0  0  0
 39 44  1  0  0  0  0
 43 45  1  0  0  0  0
 43 46  1  0  0  0  0
 44 47  2  0  0  0  0
 45 48  2  0  0  0  0
 45 49  1  0  0  0  0
 46 50  2  0  0  0  0
 47 48  1  0  0  0  0
 49 51  2  0  0  0  0
 50 51  1  0  0  0  0
M  END
>  <Mol_ID> (424)
2706

>  <Formula> (424)
C38H35N5O6S2

>  <MolWeight> (424)
721.8444

>  <Cat> (424)
S7422

>  <Name> (424)
KN-62

>  <Synonyms> (424)
N/A

>  <Target> (424)
Others

>  <Form> (424)
Free Base

>  <CAS> (424)
127191-97-3

>  <URL> (424)
http://www.selleckchem.com/products/kn-62.html

$$$$
LM-3086.cdx
csChFnd80/05071909292D

 20 22  0  0  0  0  0  0  0  0999 V2000
    0.0000    2.1000    0.0000 C   0  0  0  0  0  0  0  0  0  0  0  0
    0.0000    0.7000    0.0000 N   0  0  0  0  0  0  0  0  0  0  0  0
    1.2124    0.0000    0.0000 C   0  0  0  0  0  0  0  0  0  0  0  0
    2.4249    0.7000    0.0000 C   0  0  0  0  0  0  0  0  0  0  0  0
    2.4249    2.1000    0.0000 C   0  0  0  0  0  0  0  0  0  0  0  0
    1.2124    2.8000    0.0000 C   0  0  0  0  0  0  0  0  0  0  0  0
    3.6373    2.8000    0.0000 C   0  0  0  0  0  0  0  0  0  0  0  0
    4.8497    2.1000    0.0000 C   0  0  0  0  0  0  0  0  0  0  0  0
    6.0622    2.8000    0.0000 C   0  0  0  0  0  0  0  0  0  0  0  0
    7.2746    2.1000    0.0000 C   0  0  0  0  0  0  0  0  0  0  0  0
    3.6373    4.2000    0.0000 O   0  0  0  0  0  0  0  0  0  0  0  0
    7.2746    0.7000    0.0000 C   0  0  0  0  0  0  0  0  0  0  0  0
    8.4870    0.0000    0.0000 C   0  0  0  0  0  0  0  0  0  0  0  0
    9.6995    0.7000    0.0000 C   0  0  0  0  0  0  0  0  0  0  0  0
    9.6995    2.1000    0.0000 C   0  0  0  0  0  0  0  0  0  0  0  0
    8.4870    2.8000    0.0000 N   0  0  0  0  0  0  0  0  0  0  0  0
   10.9119    0.0000    0.0000 C   0  0  0  0  0  0  0  0  0  0  0  0
   12.1244    0.7000    0.0000 C   0  0  0  0  0  0  0  0  0  0  0  0
   12.1244    2.1000    0.0000 C   0  0  0  0  0  0  0  0  0  0  0  0
   10.9119    2.8000    0.0000 C   0  0  0  0  0  0  0  0  0  0  0  0
  1  2  2  0  0  0  0
  2  3  1  0  0  0  0
  3  4  2  0  0  0  0
  4  5  1  0  0  0  0
  5  6  2  0  0  0  0
  6  1  1  0  0  0  0
  5  7  1  0  0  0  0
  7  8  1  0  0  0  0
  8  9  2  0  0  0  0
  9 10  1  0  0  0  0
  7 11  2  0  0  0  0
 10 12  2  0  0  0  0
 12 13  1  0  0  0  0
 13 14  2  0  0  0  0
 14 15  1  0  0  0  0
 15 16  2  0  0  0  0
 16 10  1  0  0  0  0
 14 17  1  0  0  0  0
 17 18  2  0  0  0  0
 18 19  1  0  0  0  0
 19 20  2  0  0  0  0
 20 15  1  0  0  0  0
M  END
>  <Mol_ID> (425)
2707

>  <Formula> (425)
C17H12N2O

>  <MolWeight> (425)
260.28998

>  <Cat> (425)
S7289

>  <Name> (425)
PFK15

>  <Synonyms> (425)
PFK-015

>  <Target> (425)
Others

>  <Form> (425)
Free Base

>  <CAS> (425)
4382-63-2

>  <URL> (425)
http://www.selleckchem.com/products/pfk15.html

$$$$
HS-173.cdx
csChFnd80/05071909292D

 30 33  0  0  0  0  0  0  0  0999 V2000
    0.0000    4.2000    0.0000 C   0  0  0  0  0  0  0  0  0  0  0  0
    0.0000    2.8000    0.0000 N   0  0  0  0  0  0  0  0  0  0  0  0
    1.2124    2.1000    0.0000 C   0  0  0  0  0  0  0  0  0  0  0  0
    2.4249    2.8000    0.0000 C   0  0  0  0  0  0  0  0  0  0  0  0
    2.4249    4.2000    0.0000 C   0  0  0  0  0  0  0  0  0  0  0  0
    1.2124    4.9000    0.0000 C   0  0  0  0  0  0  0  0  0  0  0  0
    1.2124    6.3000    0.0000 N   0  0  0  0  0  0  0  0  0  0  0  0
    2.4249    7.0000    0.0000 S   0  0  0  0  0  0  0  0  0  0  0  0
    3.6373    2.1000    0.0000 C   0  0  0  0  0  0  0  0  0  0  0  0
    3.6373    0.7000    0.0000 C   0  0  0  0  0  0  0  0  0  0  0  0
    4.8497    0.0000    0.0000 C   0  0  0  0  0  0  0  0  0  0  0  0
    6.0622    0.7000    0.0000 C   0  0  0  0  0  0  0  0  0  0  0  0
    6.0622    2.1000    0.0000 N   0  0  0  0  0  0  0  0  0  0  0  0
    4.8497    2.8000    0.0000 C   0  0  0  0  0  0  0  0  0  0  0  0
    7.3937    0.2674    0.0000 N   0  0  0  0  0  0  0  0  0  0  0  0
    8.2166    1.4000    0.0000 C   0  0  0  0  0  0  0  0  0  0  0  0
    7.3937    2.5326    0.0000 C   0  0  0  0  0  0  0  0  0  0  0  0
    7.8263    3.8641    0.0000 C   0  0  0  0  0  0  0  0  0  0  0  0
    6.8363    4.8541    0.0000 O   0  0  0  0  0  0  0  0  0  0  0  0
    9.1957    4.1552    0.0000 O   0  0  0  0  0  0  0  0  0  0  0  0
    9.6283    5.4867    0.0000 C   0  0  0  0  0  0  0  0  0  0  0  0
   10.9977    5.7777    0.0000 C   0  0  0  0  0  0  0  0  0  0  0  0
    1.7249    8.2124    0.0000 O   0  0  0  0  0  0  0  0  0  0  0  0
    3.1249    5.7876    0.0000 O   0  0  0  0  0  0  0  0  0  0  0  0
    3.6373    7.7000    0.0000 C   0  0  0  0  0  0  0  0  0  0  0  0
    4.8503    7.0009    0.0000 C   0  0  0  0  0  0  0  0  0  0  0  0
    6.0622    7.7000    0.0000 C   0  0  0  0  0  0  0  0  0  0  0  0
    6.0622    9.1000    0.0000 C   0  0  0  0  0  0  0  0  0  0  0  0
    4.8508    9.7982    0.0000 C   0  0  0  0  0  0  0  0  0  0  0  0
    3.6373    9.1000    0.0000 C   0  0  0  0  0  0  0  0  0  0  0  0
  1  2  2  0  0  0  0
  2  3  1  0  0  0  0
  3  4  2  0  0  0  0
  4  5  1  0  0  0  0
  5  6  2  0  0  0  0
  6  1  1  0  0  0  0
  6  7  1  0  0  0  0
  7  8  1  0  0  0  0
  4  9  1  0  0  0  0
 10 11  2  0  0  0  0
 12 13  1  0  0  0  0
 14  9  2  0  0  0  0
 12 15  2  0  0  0  0
 15 16  1  0  0  0  0
 16 17  2  0  0  0  0
 17 13  1  0  0  0  0
 17 18  1  0  0  0  0
 12 11  1  0  0  0  0
  9 10  1  0  0  0  0
 14 13  1  0  0  0  0
 18 19  2  0  0  0  0
 18 20  1  0  0  0  0
 20 21  1  0  0  0  0
 21 22  1  0  0  0  0
  8 23  2  0  0  0  0
  8 24  2  0  0  0  0
  8 25  1  0  0  0  0
 25 26  2  0  0  0  0
 26 27  1  0  0  0  0
 27 28  2  0  0  0  0
 28 29  1  0  0  0  0
 29 30  2  0  0  0  0
 30 25  1  0  0  0  0
M  END
>  <Mol_ID> (426)
2708

>  <Formula> (426)
C21H18N4O4S

>  <MolWeight> (426)
422.45702

>  <Cat> (426)
S7356

>  <Name> (426)
HS-173

>  <Synonyms> (426)
N/A

>  <Target> (426)
PI3K

>  <Form> (426)
Free Base

>  <CAS> (426)
1276110-06-5

>  <URL> (426)
http://www.selleckchem.com/products/hs-173.html

$$$$
 CS ChemDraw Drawing.cdx
csChFnd80/05071909292D

 28 30  0  0  0  0  0  0  0  0999 V2000
    5.0331    3.5000    0.0000 C   0  0  0  0  0  0  0  0  0  0  0  0
    5.0331    2.1000    0.0000 C   0  0  0  0  0  0  0  0  0  0  0  0
    6.2455    1.4000    0.0000 C   0  0  0  0  0  0  0  0  0  0  0  0
    7.4580    2.1000    0.0000 C   0  0  0  0  0  0  0  0  0  0  0  0
    7.4580    3.5000    0.0000 C   0  0  0  0  0  0  0  0  0  0  0  0
    6.2455    4.2000    0.0000 C   0  0  0  0  0  0  0  0  0  0  0  0
    3.8207    4.2000    0.0000 C   0  0  0  0  0  0  0  0  0  0  0  0
    2.6082    3.5000    0.0000 N   0  0  0  0  0  0  0  0  0  0  0  0
    3.8207    5.6000    0.0000 O   0  0  0  0  0  0  0  0  0  0  0  0
    8.6704    1.4000    0.0000 C   0  0  0  0  0  0  0  0  0  0  0  0
    6.2455    0.0000    0.0000 F   0  0  0  0  0  0  0  0  0  0  0  0
    8.6704    4.2000    0.0000 C   0  0  0  0  0  0  0  0  0  0  0  0
    9.8828    3.5000    0.0000 C   0  0  0  0  0  0  0  0  0  0  0  0
   11.0953    4.2000    0.0000 C   0  0  0  0  0  0  0  0  0  0  0  0
   11.0953    5.6000    0.0000 C   0  0  0  0  0  0  0  0  0  0  0  0
    9.8828    6.3000    0.0000 C   0  0  0  0  0  0  0  0  0  0  0  0
    8.6704    5.6000    0.0000 N   0  0  0  0  0  0  0  0  0  0  0  0
   12.3077    6.3000    0.0000 C   0  0  0  0  0  0  0  0  0  0  0  0
   13.5201    5.6000    0.0000 N   0  0  0  0  0  0  0  0  0  0  0  0
   12.3077    7.7000    0.0000 O   0  0  0  0  0  0  0  0  0  0  0  0
   14.7326    6.3000    0.0000 C   0  0  0  0  0  0  0  0  0  0  0  0
   15.9450    5.6000    0.0000 C   0  0  0  0  0  0  0  0  0  0  0  0
   17.1575    6.3000    0.0000 C   0  0  0  0  0  0  0  0  0  0  0  0
   15.9450    4.2000    0.0000 C   0  0  0  0  0  0  0  0  0  0  0  0
   17.1575    4.9000    0.0000 C   0  0  0  0  0  0  0  0  0  0  0  0
    1.4000    4.1976    0.0000 C   0  0  0  0  0  0  0  0  0  0  0  0
    0.7000    5.4100    0.0000 C   0  0  0  0  0  0  0  0  0  0  0  0
    0.0000    4.1976    0.0000 C   0  0  0  0  0  0  0  0  0  0  0  0
  1  2  2  0  0  0  0
  2  3  1  0  0  0  0
  3  4  2  0  0  0  0
  4  5  1  0  0  0  0
  5  6  2  0  0  0  0
  6  1  1  0  0  0  0
  1  7  1  0  0  0  0
  7  8  1  0  0  0  0
  7  9  2  0  0  0  0
  4 10  1  0  0  0  0
  3 11  1  0  0  0  0
  5 12  1  0  0  0  0
 12 13  2  0  0  0  0
 13 14  1  0  0  0  0
 14 15  2  0  0  0  0
 15 16  1  0  0  0  0
 16 17  2  0  0  0  0
 17 12  1  0  0  0  0
 15 18  1  0  0  0  0
 18 19  1  0  0  0  0
 18 20  2  0  0  0  0
 19 21  1  0  0  0  0
 21 22  1  0  0  0  0
 22 23  1  0  0  0  0
 22 24  1  0  0  0  0
 22 25  1  0  0  0  0
  8 26  1  0  0  0  0
 26 27  1  0  0  0  0
 27 28  1  0  0  0  0
 28 26  1  0  0  0  0
M  END
>  <Mol_ID> (427)
2714

>  <Formula> (427)
C22H26FN3O2

>  <MolWeight> (427)
383.4591432

>  <Cat> (427)
S7215

>  <Name> (427)
Losmapimod

>  <Synonyms> (427)
GW856553X, GW856553, GSK-AHAB

>  <Target> (427)
p38 MAPK

>  <Form> (427)
Free Base

>  <CAS> (427)
585543-15-3

>  <URL> (427)
http://www.selleckchem.com/products/losmapimod.html

$$$$
GNE-0877.cdx
csChFnd80/05071909292D

 24 25  0  0  0  0  0  0  0  0999 V2000
    4.1277    9.3449    0.0000 N   0  0  0  0  0  0  0  0  0  0  0  0
    4.1277    7.9449    0.0000 C   0  0  0  0  0  0  0  0  0  0  0  0
    5.3401    7.2449    0.0000 N   0  0  0  0  0  0  0  0  0  0  0  0
    6.5525    7.9449    0.0000 C   0  0  0  0  0  0  0  0  0  0  0  0
    6.5525    9.3449    0.0000 C   0  0  0  0  0  0  0  0  0  0  0  0
    5.3401   10.0449    0.0000 C   0  0  0  0  0  0  0  0  0  0  0  0
    2.9152    7.2449    0.0000 N   0  0  0  0  0  0  0  0  0  0  0  0
    2.9152    5.8449    0.0000 C   0  0  0  0  0  0  0  0  0  0  0  0
    1.7826    5.0220    0.0000 C   0  0  0  0  0  0  0  0  0  0  0  0
    2.2152    3.6906    0.0000 N   0  0  0  0  0  0  0  0  0  0  0  0
    3.6152    3.6906    0.0000 N   0  0  0  0  0  0  0  0  0  0  0  0
    4.0479    5.0220    0.0000 C   0  0  0  0  0  0  0  0  0  0  0  0
    5.3793    5.4547    0.0000 C   0  0  0  0  0  0  0  0  0  0  0  0
    1.3923    2.5579    0.0000 C   0  0  0  0  0  0  0  0  0  0  0  0
    1.9618    1.2790    0.0000 C   0  0  0  0  0  0  0  0  0  0  0  0
    2.5312    0.0000    0.0000 N   0  0  0  0  0  0  0  0  0  0  0  0
    0.0000    2.7043    0.0000 C   0  0  0  0  0  0  0  0  0  0  0  0
    0.5694    1.4253    0.0000 C   0  0  0  0  0  0  0  0  0  0  0  0
    7.7650    7.2449    0.0000 N   0  0  0  0  0  0  0  0  0  0  0  0
    7.7650    5.8449    0.0000 C   0  0  0  0  0  0  0  0  0  0  0  0
    7.7650   10.0449    0.0000 C   0  0  0  0  0  0  0  0  0  0  0  0
    7.0650   11.2574    0.0000 F   0  0  0  0  0  0  0  0  0  0  0  0
    8.9774   10.7449    0.0000 F   0  0  0  0  0  0  0  0  0  0  0  0
    8.4650    8.8325    0.0000 F   0  0  0  0  0  0  0  0  0  0  0  0
  1  2  2  0  0  0  0
  2  3  1  0  0  0  0
  3  4  2  0  0  0  0
  4  5  1  0  0  0  0
  5  6  2  0  0  0  0
  6  1  1  0  0  0  0
  2  7  1  0  0  0  0
  7  8  1  0  0  0  0
  8  9  2  0  0  0  0
  9 10  1  0  0  0  0
 10 11  1  0  0  0  0
 11 12  2  0  0  0  0
 12  8  1  0  0  0  0
 12 13  1  0  0  0  0
 10 14  1  0  0  0  0
 14 15  1  0  0  0  0
 14 17  1  0  0  0  0
 14 18  1  0  0  0  0
  4 19  1  0  0  0  0
 19 20  1  0  0  0  0
  5 21  1  0  0  0  0
 15 16  3  0  0  0  0
 21 22  1  0  0  0  0
 21 23  1  0  0  0  0
 21 24  1  0  0  0  0
M  END
>  <Mol_ID> (428)
2716

>  <Formula> (428)
C14H16F3N7

>  <MolWeight> (428)
339.3189496

>  <Cat> (428)
S7367

>  <Name> (428)
GNE-0877

>  <Synonyms> (428)
N/A

>  <Target> (428)
Others

>  <Form> (428)
Free Base

>  <CAS> (428)
1374828-69-9

>  <URL> (428)
http://www.selleckchem.com/products/gne-0877.html

$$$$
UNC2881.cdx
csChFnd80/05071909292D

 34 37  0  0  0  0  0  0  0  0999 V2000
    6.0622    3.7834    0.0000 N   0  0  0  0  0  0  0  0  0  0  0  0
    6.0622    2.3834    0.0000 C   0  0  0  0  0  0  0  0  0  0  0  0
    7.2746    1.6834    0.0000 N   0  0  0  0  0  0  0  0  0  0  0  0
    8.4870    2.3834    0.0000 C   0  0  0  0  0  0  0  0  0  0  0  0
    8.4870    3.7834    0.0000 C   0  0  0  0  0  0  0  0  0  0  0  0
    7.2746    4.4834    0.0000 C   0  0  0  0  0  0  0  0  0  0  0  0
    4.8497    1.6834    0.0000 N   0  0  0  0  0  0  0  0  0  0  0  0
    3.6373    2.3834    0.0000 C   0  0  0  0  0  0  0  0  0  0  0  0
    2.4249    1.6834    0.0000 C   0  0  0  0  0  0  0  0  0  0  0  0
    1.2124    2.3834    0.0000 C   0  0  0  0  0  0  0  0  0  0  0  0
    0.0000    1.6834    0.0000 C   0  0  0  0  0  0  0  0  0  0  0  0
    7.2746    5.8834    0.0000 N   0  0  0  0  0  0  0  0  0  0  0  0
    6.0622    6.5834    0.0000 C   0  0  2  0  0  0  0  0  0  0  0  0
    6.0622    7.9834    0.0000 C   0  0  0  0  0  0  0  0  0  0  0  0
    4.8497    8.6834    0.0000 C   0  0  0  0  0  0  0  0  0  0  0  0
    3.6373    7.9834    0.0000 C   0  0  2  0  0  0  0  0  0  0  0  0
    3.6373    6.5834    0.0000 C   0  0  0  0  0  0  0  0  0  0  0  0
    4.8497    5.8834    0.0000 C   0  0  0  0  0  0  0  0  0  0  0  0
    2.4249    8.6834    0.0000 O   0  0  0  0  0  0  0  0  0  0  0  0
    9.6995    4.4834    0.0000 C   0  0  0  0  0  0  0  0  0  0  0  0
   10.9119    3.7834    0.0000 N   0  0  0  0  0  0  0  0  0  0  0  0
   12.1244    4.4834    0.0000 C   0  0  0  0  0  0  0  0  0  0  0  0
   13.3368    3.7834    0.0000 C   0  0  0  0  0  0  0  0  0  0  0  0
    9.6995    5.8834    0.0000 O   0  0  0  0  0  0  0  0  0  0  0  0
   13.3368    2.3834    0.0000 C   0  0  0  0  0  0  0  0  0  0  0  0
   14.5492    1.6834    0.0000 C   0  0  0  0  0  0  0  0  0  0  0  0
   15.7617    2.3834    0.0000 C   0  0  0  0  0  0  0  0  0  0  0  0
   15.7617    3.7834    0.0000 C   0  0  0  0  0  0  0  0  0  0  0  0
   14.5492    4.4834    0.0000 C   0  0  0  0  0  0  0  0  0  0  0  0
   16.9741    1.6834    0.0000 N   0  0  0  0  0  0  0  0  0  0  0  0
   17.1204    0.2911    0.0000 C   0  0  0  0  0  0  0  0  0  0  0  0
   18.4898    0.0000    0.0000 N   0  0  0  0  0  0  0  0  0  0  0  0
   19.1898    1.2124    0.0000 C   0  0  0  0  0  0  0  0  0  0  0  0
   18.2531    2.2528    0.0000 C   0  0  0  0  0  0  0  0  0  0  0  0
  1  2  2  0  0  0  0
  2  3  1  0  0  0  0
  3  4  2  0  0  0  0
  4  5  1  0  0  0  0
  5  6  2  0  0  0  0
  6  1  1  0  0  0  0
  2  7  1  0  0  0  0
  7  8  1  0  0  0  0
  8  9  1  0  0  0  0
  9 10  1  0  0  0  0
 10 11  1  0  0  0  0
  6 12  1  0  0  0  0
 13 12  1  1  0  0  0
 13 14  1  0  0  0  0
 14 15  1  0  0  0  0
 15 16  1  0  0  0  0
 16 17  1  0  0  0  0
 17 18  1  0  0  0  0
 18 13  1  0  0  0  0
 16 19  1  6  0  0  0
  5 20  1  0  0  0  0
 20 21  1  0  0  0  0
 21 22  1  0  0  0  0
 22 23  1  0  0  0  0
 20 24  2  0  0  0  0
 23 25  2  0  0  0  0
 25 26  1  0  0  0  0
 26 27  2  0  0  0  0
 27 28  1  0  0  0  0
 28 29  2  0  0  0  0
 29 23  1  0  0  0  0
 27 30  1  0  0  0  0
 30 31  1  0  0  0  0
 31 32  2  0  0  0  0
 32 33  1  0  0  0  0
 33 34  2  0  0  0  0
 34 30  1  0  0  0  0
M  END
>  <Mol_ID> (429)
2723

>  <Formula> (429)
C25H33N7O2

>  <MolWeight> (429)
463.57522

>  <Cat> (429)
S7325

>  <Name> (429)
UNC2881

>  <Synonyms> (429)
N/A

>  <Target> (429)
TAM Receptor

>  <Form> (429)
Free Base

>  <CAS> (429)
1493764-08-1

>  <URL> (429)
http://www.selleckchem.com/products/unc2881.html

$$$$
PF-543 .cdx
csChFnd80/05071909292D

 33 36  0  0  0  0  0  0  0  0999 V2000
    0.0000   10.6126    0.0000 C   0  0  0  0  0  0  0  0  0  0  0  0
    0.0000    9.2126    0.0000 C   0  0  0  0  0  0  0  0  0  0  0  0
    1.2124    8.5126    0.0000 C   0  0  0  0  0  0  0  0  0  0  0  0
    2.4249    9.2126    0.0000 C   0  0  0  0  0  0  0  0  0  0  0  0
    2.4249   10.6126    0.0000 C   0  0  0  0  0  0  0  0  0  0  0  0
    1.2124   11.3126    0.0000 C   0  0  0  0  0  0  0  0  0  0  0  0
    3.6373   11.3126    0.0000 S   0  0  0  0  0  0  0  0  0  0  0  0
    4.3373   10.1001    0.0000 C   0  0  0  0  0  0  0  0  0  0  0  0
    5.7373   10.1001    0.0000 C   0  0  0  0  0  0  0  0  0  0  0  0
    6.4373    8.8877    0.0000 C   0  0  0  0  0  0  0  0  0  0  0  0
    7.8373    8.8877    0.0000 C   0  0  0  0  0  0  0  0  0  0  0  0
    8.5373   10.1001    0.0000 C   0  0  0  0  0  0  0  0  0  0  0  0
    7.8373   11.3126    0.0000 C   0  0  0  0  0  0  0  0  0  0  0  0
    6.4373   11.3126    0.0000 C   0  0  0  0  0  0  0  0  0  0  0  0
    8.5373   12.5250    0.0000 C   0  0  0  0  0  0  0  0  0  0  0  0
    8.5373    7.6753    0.0000 O   0  0  0  0  0  0  0  0  0  0  0  0
    9.9373    7.6753    0.0000 C   0  0  0  0  0  0  0  0  0  0  0  0
   10.6373    6.4628    0.0000 C   0  0  0  0  0  0  0  0  0  0  0  0
    9.9373    5.2504    0.0000 C   0  0  0  0  0  0  0  0  0  0  0  0
   10.6373    4.0380    0.0000 C   0  0  0  0  0  0  0  0  0  0  0  0
   12.0373    4.0380    0.0000 C   0  0  0  0  0  0  0  0  0  0  0  0
   12.7373    5.2504    0.0000 C   0  0  0  0  0  0  0  0  0  0  0  0
   12.0373    6.4628    0.0000 C   0  0  0  0  0  0  0  0  0  0  0  0
   12.7373    2.8255    0.0000 C   0  0  0  0  0  0  0  0  0  0  0  0
   14.1373    2.8255    0.0000 N   0  0  0  0  0  0  0  0  0  0  0  0
   14.9581    1.6935    0.0000 C   0  0  2  0  0  0  0  0  0  0  0  0
   16.2900    2.1265    0.0000 C   0  0  0  0  0  0  0  0  0  0  0  0
   16.2900    3.5265    0.0000 C   0  0  0  0  0  0  0  0  0  0  0  0
   14.9585    3.9591    0.0000 C   0  0  0  0  0  0  0  0  0  0  0  0
   14.5245    0.3623    0.0000 C   0  0  0  0  0  0  0  0  0  0  0  0
   13.1722    0.0000    0.0000 O   0  0  0  0  0  0  0  0  0  0  0  0
    2.9373   12.5250    0.0000 O   0  0  0  0  0  0  0  0  0  0  0  0
    4.8497   12.0126    0.0000 O   0  0  0  0  0  0  0  0  0  0  0  0
  1  2  2  0  0  0  0
  2  3  1  0  0  0  0
  3  4  2  0  0  0  0
  4  5  1  0  0  0  0
  5  6  2  0  0  0  0
  6  1  1  0  0  0  0
  5  7  1  0  0  0  0
  7  8  1  0  0  0  0
  8  9  1  0  0  0  0
  9 10  2  0  0  0  0
 10 11  1  0  0  0  0
 11 12  2  0  0  0  0
 12 13  1  0  0  0  0
 13 14  2  0  0  0  0
 14  9  1  0  0  0  0
 13 15  1  0  0  0  0
 11 16  1  0  0  0  0
 16 17  1  0  0  0  0
 17 18  1  0  0  0  0
 18 19  2  0  0  0  0
 19 20  1  0  0  0  0
 20 21  2  0  0  0  0
 21 22  1  0  0  0  0
 22 23  2  0  0  0  0
 23 18  1  0  0  0  0
 21 24  1  0  0  0  0
 24 25  1  0  0  0  0
 25 26  1  0  0  0  0
 26 27  1  0  0  0  0
 27 28  1  0  0  0  0
 28 29  1  0  0  0  0
 29 25  1  0  0  0  0
 26 30  1  6  0  0  0
 30 31  1  0  0  0  0
  7 32  2  0  0  0  0
  7 33  2  0  0  0  0
M  END
>  <Mol_ID> (430)
2724

>  <Formula> (430)
C27H31NO4S

>  <MolWeight> (430)
465.60434

>  <Cat> (430)
S7177

>  <Name> (430)
PF-543

>  <Synonyms> (430)
N/A

>  <Target> (430)
S1P Receptor

>  <Form> (430)
Free Base

>  <CAS> (430)
1415562-82-1

>  <URL> (430)
http://www.selleckchem.com/products/pf-543.html

$$$$
AZD1208.cdx
csChFnd80/05071909292D

 27 30  0  0  0  0  0  0  0  0999 V2000
    3.6081    4.2000    0.0000 C   0  0  0  0  0  0  0  0  0  0  0  0
    3.6081    2.8000    0.0000 C   0  0  0  0  0  0  0  0  0  0  0  0
    4.8205    2.1000    0.0000 C   0  0  0  0  0  0  0  0  0  0  0  0
    6.0329    2.8000    0.0000 C   0  0  0  0  0  0  0  0  0  0  0  0
    6.0329    4.2000    0.0000 C   0  0  0  0  0  0  0  0  0  0  0  0
    4.8205    4.9000    0.0000 C   0  0  0  0  0  0  0  0  0  0  0  0
    7.2454    2.1000    0.0000 C   0  0  0  0  0  0  0  0  0  0  0  0
    7.2454    4.9000    0.0000 N   0  0  0  0  0  0  0  0  0  0  0  0
    8.4578    4.2000    0.0000 C   0  0  0  0  0  0  0  0  0  0  0  0
    9.6703    4.9000    0.0000 C   0  0  1  0  0  0  0  0  0  0  0  0
    9.6703    6.3000    0.0000 C   0  0  0  0  0  0  0  0  0  0  0  0
    8.4578    7.0000    0.0000 C   0  0  0  0  0  0  0  0  0  0  0  0
    7.2454    6.3000    0.0000 C   0  0  0  0  0  0  0  0  0  0  0  0
   10.8827    4.2000    0.0000 N   0  0  0  0  0  0  0  0  0  0  0  0
    7.2454    0.7000    0.0000 C   0  0  0  0  0  0  0  0  0  0  0  0
    8.4578    0.0000    0.0000 C   0  0  0  0  0  0  0  0  0  0  0  0
    9.6703    0.7000    0.0000 C   0  0  0  0  0  0  0  0  0  0  0  0
    9.6703    2.1000    0.0000 C   0  0  0  0  0  0  0  0  0  0  0  0
    8.4578    2.8000    0.0000 C   0  0  0  0  0  0  0  0  0  0  0  0
    4.8205    6.3000    0.0000 C   0  0  0  0  0  0  0  0  0  0  0  0
    3.6081    7.0000    0.0000 C   0  0  0  0  0  0  0  0  0  0  0  0
    3.4617    8.3923    0.0000 C   0  0  0  0  0  0  0  0  0  0  0  0
    2.0923    8.6834    0.0000 N   0  0  0  0  0  0  0  0  0  0  0  0
    1.3923    7.4710    0.0000 C   0  0  0  0  0  0  0  0  0  0  0  0
    2.3291    6.4306    0.0000 S   0  0  0  0  0  0  0  0  0  0  0  0
    4.5021    9.3291    0.0000 O   0  0  0  0  0  0  0  0  0  0  0  0
    0.0000    7.3246    0.0000 O   0  0  0  0  0  0  0  0  0  0  0  0
  1  2  2  0  0  0  0
  2  3  1  0  0  0  0
  3  4  2  0  0  0  0
  4  5  1  0  0  0  0
  5  6  2  0  0  0  0
  6  1  1  0  0  0  0
  4  7  1  0  0  0  0
  5  8  1  0  0  0  0
  8  9  1  0  0  0  0
  9 10  1  0  0  0  0
 10 11  1  0  0  0  0
 11 12  1  0  0  0  0
 12 13  1  0  0  0  0
 13  8  1  0  0  0  0
 10 14  1  1  0  0  0
  7 15  2  0  0  0  0
 15 16  1  0  0  0  0
 16 17  2  0  0  0  0
 17 18  1  0  0  0  0
 18 19  2  0  0  0  0
 19  7  1  0  0  0  0
  6 20  1  0  0  0  0
 20 21  2  0  0  0  0
 21 22  1  0  0  0  0
 22 23  1  0  0  0  0
 23 24  1  0  0  0  0
 24 25  1  0  0  0  0
 25 21  1  0  0  0  0
 22 26  2  0  0  0  0
 24 27  2  0  0  0  0
M  END
>  <Mol_ID> (431)
2725

>  <Formula> (431)
C21H21N3O2S

>  <MolWeight> (431)
379.47534

>  <Cat> (431)
S7104

>  <Name> (431)
AZD1208

>  <Synonyms> (431)
N/A

>  <Target> (431)
Pim

>  <Form> (431)
Free Base

>  <CAS> (431)
1204144-28-4

>  <URL> (431)
http://www.selleckchem.com/products/azd-1208.html

$$$$
CX-6258 HCl .cdx
csChFnd80/05071909292D

 34 37  0  0  0  0  0  0  0  0999 V2000
    5.5195    3.2964    0.0000 C   0  0  0  0  0  0  0  0  0  0  0  0
    5.5195    1.8964    0.0000 C   0  0  0  0  0  0  0  0  0  0  0  0
    6.7320    1.1964    0.0000 C   0  0  0  0  0  0  0  0  0  0  0  0
    7.9444    1.8964    0.0000 C   0  0  0  0  0  0  0  0  0  0  0  0
    7.9444    3.2964    0.0000 C   0  0  0  0  0  0  0  0  0  0  0  0
    6.7320    3.9964    0.0000 C   0  0  0  0  0  0  0  0  0  0  0  0
    4.3071    3.9964    0.0000 C   0  0  0  0  0  0  0  0  0  0  0  0
    3.0947    3.2964    0.0000 N   0  0  0  0  0  0  0  0  0  0  0  0
    1.9379    4.0850    0.0000 C   0  0  0  0  0  0  0  0  0  0  0  0
    0.6001    3.6724    0.0000 C   0  0  0  0  0  0  0  0  0  0  0  0
    0.0886    2.3692    0.0000 C   0  0  0  0  0  0  0  0  0  0  0  0
    0.7886    1.1567    0.0000 N   0  0  0  0  0  0  0  0  0  0  0  0
    2.1730    0.9481    0.0000 C   0  0  0  0  0  0  0  0  0  0  0  0
    3.1993    1.9003    0.0000 C   0  0  0  0  0  0  0  0  0  0  0  0
    4.3071    5.3964    0.0000 O   0  0  0  0  0  0  0  0  0  0  0  0
    0.0000    0.0000    0.0000 C   0  0  0  0  0  0  0  0  0  0  0  0
    9.1568    3.9964    0.0000 C   0  0  0  0  0  0  0  0  0  0  0  0
   10.4358    3.4270    0.0000 C   0  0  0  0  0  0  0  0  0  0  0  0
   11.3726    4.4674    0.0000 C   0  0  0  0  0  0  0  0  0  0  0  0
   10.6726    5.6798    0.0000 C   0  0  0  0  0  0  0  0  0  0  0  0
    9.3032    5.3887    0.0000 O   0  0  0  0  0  0  0  0  0  0  0  0
   11.2420    6.9588    0.0000 C   0  0  0  0  0  0  0  0  0  0  0  0
   10.4191    8.0914    0.0000 C   0  0  0  0  0  0  0  0  0  0  0  0
   10.8517    9.4229    0.0000 C   0  0  0  0  0  0  0  0  0  0  0  0
    9.7191   10.2458    0.0000 N   0  0  0  0  0  0  0  0  0  0  0  0
    8.5865    9.4229    0.0000 C   0  0  0  0  0  0  0  0  0  0  0  0
    9.0191    8.0914    0.0000 C   0  0  0  0  0  0  0  0  0  0  0  0
    7.2171    9.7140    0.0000 C   0  0  0  0  0  0  0  0  0  0  0  0
    6.2803    8.6736    0.0000 C   0  0  0  0  0  0  0  0  0  0  0  0
    6.7129    7.3421    0.0000 C   0  0  0  0  0  0  0  0  0  0  0  0
    8.0823    7.0510    0.0000 C   0  0  0  0  0  0  0  0  0  0  0  0
    5.7761    6.3017    0.0000 Cl  0  0  0  0  0  0  0  0  0  0  0  0
   12.1832    9.8555    0.0000 O   0  0  0  0  0  0  0  0  0  0  0  0
   10.9013    1.2195    0.0000 Cl  0  0  0  0  0  0  0  0  0  0  0  0
  1  2  2  0  0  0  0
  2  3  1  0  0  0  0
  3  4  2  0  0  0  0
  4  5  1  0  0  0  0
  5  6  2  0  0  0  0
  6  1  1  0  0  0  0
  1  7  1  0  0  0  0
  7  8  1  0  0  0  0
  8  9  1  0  0  0  0
  9 10  1  0  0  0  0
 10 11  1  0  0  0  0
 11 12  1  0  0  0  0
 12 13  1  0  0  0  0
 13 14  1  0  0  0  0
 14  8  1  0  0  0  0
  7 15  2  0  0  0  0
 12 16  1  0  0  0  0
  5 17  1  0  0  0  0
 17 18  2  0  0  0  0
 18 19  1  0  0  0  0
 19 20  2  0  0  0  0
 20 21  1  0  0  0  0
 21 17  1  0  0  0  0
 20 22  1  0  0  0  0
 22 23  2  0  0  0  0
 23 24  1  0  0  0  0
 24 25  1  0  0  0  0
 25 26  1  0  0  0  0
 26 27  2  0  0  0  0
 27 23  1  0  0  0  0
 26 28  1  0  0  0  0
 28 29  2  0  0  0  0
 29 30  1  0  0  0  0
 30 31  2  0  0  0  0
 31 27  1  0  0  0  0
 30 32  1  0  0  0  0
 24 33  2  0  0  0  0
M  END
>  <Mol_ID> (432)
2728

>  <Formula> (432)
C26H25Cl2N3O3

>  <MolWeight> (432)
498.401

>  <Cat> (432)
S7041

>  <Name> (432)
CX-6258 HCl

>  <Synonyms> (432)
N/A

>  <Target> (432)
Pim

>  <Form> (432)
Hydrochloride

>  <CAS> (432)
1353859-00-3

>  <URL> (432)
http://www.selleckchem.com/products/CX-6258.html

$$$$
EMD 1214063.cdx
csChFnd80/05071909292D

 37 41  0  0  0  0  0  0  0  0999 V2000
    2.4249    4.2000    0.0000 C   0  0  0  0  0  0  0  0  0  0  0  0
    2.4249    2.8000    0.0000 C   0  0  0  0  0  0  0  0  0  0  0  0
    3.6373    2.1000    0.0000 C   0  0  0  0  0  0  0  0  0  0  0  0
    4.8497    2.8000    0.0000 C   0  0  0  0  0  0  0  0  0  0  0  0
    4.8497    4.2000    0.0000 C   0  0  0  0  0  0  0  0  0  0  0  0
    3.6373    4.9000    0.0000 C   0  0  0  0  0  0  0  0  0  0  0  0
    1.2124    4.9000    0.0000 C   0  0  0  0  0  0  0  0  0  0  0  0
    6.0622    4.9000    0.0000 C   0  0  0  0  0  0  0  0  0  0  0  0
    7.2746    4.2000    0.0000 N   0  0  0  0  0  0  0  0  0  0  0  0
    8.4870    4.9000    0.0000 N   0  0  0  0  0  0  0  0  0  0  0  0
    8.4870    6.3000    0.0000 C   0  0  0  0  0  0  0  0  0  0  0  0
    7.2746    7.0000    0.0000 C   0  0  0  0  0  0  0  0  0  0  0  0
    6.0622    6.3000    0.0000 C   0  0  0  0  0  0  0  0  0  0  0  0
    9.6995    4.2000    0.0000 C   0  0  0  0  0  0  0  0  0  0  0  0
   10.9119    4.9000    0.0000 C   0  0  0  0  0  0  0  0  0  0  0  0
   12.1244    4.2000    0.0000 C   0  0  0  0  0  0  0  0  0  0  0  0
   13.3368    4.9000    0.0000 C   0  0  0  0  0  0  0  0  0  0  0  0
   13.3368    6.3000    0.0000 C   0  0  0  0  0  0  0  0  0  0  0  0
   12.1244    7.0000    0.0000 C   0  0  0  0  0  0  0  0  0  0  0  0
   10.9119    6.3000    0.0000 C   0  0  0  0  0  0  0  0  0  0  0  0
   14.5492    4.2000    0.0000 C   0  0  0  0  0  0  0  0  0  0  0  0
   14.5492    2.8000    0.0000 N   0  0  0  0  0  0  0  0  0  0  0  0
   15.7617    2.1000    0.0000 C   0  0  0  0  0  0  0  0  0  0  0  0
   16.9741    2.8000    0.0000 C   0  0  0  0  0  0  0  0  0  0  0  0
   16.9741    4.2000    0.0000 C   0  0  0  0  0  0  0  0  0  0  0  0
   15.7617    4.9000    0.0000 N   0  0  0  0  0  0  0  0  0  0  0  0
   18.1865    2.1000    0.0000 O   0  0  0  0  0  0  0  0  0  0  0  0
   19.3990    2.8000    0.0000 C   0  0  0  0  0  0  0  0  0  0  0  0
   20.6114    2.1000    0.0000 C   0  0  0  0  0  0  0  0  0  0  0  0
   20.6114    0.7000    0.0000 C   0  0  0  0  0  0  0  0  0  0  0  0
   21.8238    0.0000    0.0000 C   0  0  0  0  0  0  0  0  0  0  0  0
   23.0363    0.7000    0.0000 N   0  0  0  0  0  0  0  0  0  0  0  0
   23.0363    2.1000    0.0000 C   0  0  0  0  0  0  0  0  0  0  0  0
   21.8238    2.8000    0.0000 C   0  0  0  0  0  0  0  0  0  0  0  0
   24.2487    0.0000    0.0000 C   0  0  0  0  0  0  0  0  0  0  0  0
    9.6995    7.0000    0.0000 O   0  0  0  0  0  0  0  0  0  0  0  0
    0.0000    5.6000    0.0000 N   0  0  0  0  0  0  0  0  0  0  0  0
  1  2  2  0  0  0  0
  2  3  1  0  0  0  0
  3  4  2  0  0  0  0
  4  5  1  0  0  0  0
  5  6  2  0  0  0  0
  6  1  1  0  0  0  0
  1  7  1  0  0  0  0
  5  8  1  0  0  0  0
  8  9  2  0  0  0  0
  9 10  1  0  0  0  0
 10 11  1  0  0  0  0
 11 12  1  0  0  0  0
 12 13  2  0  0  0  0
 13  8  1  0  0  0  0
 10 14  1  0  0  0  0
 14 15  1  0  0  0  0
 15 16  2  0  0  0  0
 16 17  1  0  0  0  0
 17 18  2  0  0  0  0
 18 19  1  0  0  0  0
 19 20  2  0  0  0  0
 20 15  1  0  0  0  0
 17 21  1  0  0  0  0
 21 22  2  0  0  0  0
 22 23  1  0  0  0  0
 23 24  2  0  0  0  0
 24 25  1  0  0  0  0
 25 26  2  0  0  0  0
 26 21  1  0  0  0  0
 24 27  1  0  0  0  0
 27 28  1  0  0  0  0
 28 29  1  0  0  0  0
 29 30  1  0  0  0  0
 30 31  1  0  0  0  0
 31 32  1  0  0  0  0
 32 33  1  0  0  0  0
 33 34  1  0  0  0  0
 34 29  1  0  0  0  0
 32 35  1  0  0  0  0
 11 36  2  0  0  0  0
  7 37  3  0  0  0  0
M  END
>  <Mol_ID> (433)
2730

>  <Formula> (433)
C29H28N6O2

>  <MolWeight> (433)
492.57162

>  <Cat> (433)
S7067

>  <Name> (433)
Tepotinib (EMD 1214063)

>  <Synonyms> (433)
N/A

>  <Target> (433)
c-Met

>  <Form> (433)
Free Base

>  <CAS> (433)
1100598-32-0

>  <URL> (433)
http://www.selleckchem.com/products/emd-1214063.html

$$$$
LDC000067.cdx
csChFnd80/05071909292D

 26 28  0  0  0  0  0  0  0  0999 V2000
    3.6373    4.2000    0.0000 C   0  0  0  0  0  0  0  0  0  0  0  0
    3.6373    2.8000    0.0000 C   0  0  0  0  0  0  0  0  0  0  0  0
    4.8497    2.1000    0.0000 C   0  0  0  0  0  0  0  0  0  0  0  0
    6.0622    2.8000    0.0000 C   0  0  0  0  0  0  0  0  0  0  0  0
    6.0622    4.2000    0.0000 C   0  0  0  0  0  0  0  0  0  0  0  0
    4.8497    4.9000    0.0000 C   0  0  0  0  0  0  0  0  0  0  0  0
    2.4249    2.1000    0.0000 C   0  0  0  0  0  0  0  0  0  0  0  0
    1.2124    2.8000    0.0000 S   0  0  0  0  0  0  0  0  0  0  0  0
    0.0000    2.1000    0.0000 N   0  0  0  0  0  0  0  0  0  0  0  0
    7.2746    2.1000    0.0000 N   0  0  0  0  0  0  0  0  0  0  0  0
    8.4870    2.8000    0.0000 C   0  0  0  0  0  0  0  0  0  0  0  0
    9.6995    2.1000    0.0000 C   0  0  0  0  0  0  0  0  0  0  0  0
   10.9119    2.8000    0.0000 C   0  0  0  0  0  0  0  0  0  0  0  0
   10.9119    4.2000    0.0000 N   0  0  0  0  0  0  0  0  0  0  0  0
    9.6995    4.9000    0.0000 C   0  0  0  0  0  0  0  0  0  0  0  0
    8.4870    4.2000    0.0000 N   0  0  0  0  0  0  0  0  0  0  0  0
   12.1244    2.1000    0.0000 C   0  0  0  0  0  0  0  0  0  0  0  0
   12.1244    0.7000    0.0000 C   0  0  0  0  0  0  0  0  0  0  0  0
   13.3368    0.0000    0.0000 C   0  0  0  0  0  0  0  0  0  0  0  0
   14.5492    0.7000    0.0000 C   0  0  0  0  0  0  0  0  0  0  0  0
   14.5492    2.1000    0.0000 C   0  0  0  0  0  0  0  0  0  0  0  0
   13.3368    2.8000    0.0000 C   0  0  0  0  0  0  0  0  0  0  0  0
   13.3368    4.2000    0.0000 O   0  0  0  0  0  0  0  0  0  0  0  0
   14.5492    4.9000    0.0000 C   0  0  0  0  0  0  0  0  0  0  0  0
    1.2124    4.2000    0.0000 O   0  0  0  0  0  0  0  0  0  0  0  0
    1.2124    1.4000    0.0000 O   0  0  0  0  0  0  0  0  0  0  0  0
  1  2  2  0  0  0  0
  2  3  1  0  0  0  0
  3  4  2  0  0  0  0
  4  5  1  0  0  0  0
  5  6  2  0  0  0  0
  6  1  1  0  0  0  0
  2  7  1  0  0  0  0
  7  8  1  0  0  0  0
  8  9  1  0  0  0  0
  4 10  1  0  0  0  0
 10 11  1  0  0  0  0
 11 12  2  0  0  0  0
 12 13  1  0  0  0  0
 13 14  2  0  0  0  0
 14 15  1  0  0  0  0
 15 16  2  0  0  0  0
 16 11  1  0  0  0  0
 13 17  1  0  0  0  0
 17 18  2  0  0  0  0
 18 19  1  0  0  0  0
 19 20  2  0  0  0  0
 20 21  1  0  0  0  0
 21 22  2  0  0  0  0
 22 17  1  0  0  0  0
 22 23  1  0  0  0  0
 23 24  1  0  0  0  0
  8 25  2  0  0  0  0
  8 26  2  0  0  0  0
M  END
>  <Mol_ID> (434)
2731

>  <Formula> (434)
C18H18N4O3S

>  <MolWeight> (434)
370.42552

>  <Cat> (434)
S7461

>  <Name> (434)
LDC000067

>  <Synonyms> (434)
LDC067

>  <Target> (434)
CDK

>  <Form> (434)
Free Base

>  <CAS> (434)
1073485-20-7

>  <URL> (434)
http://www.selleckchem.com/products/ldc000067.html

$$$$
XMD8-92.cdx
csChFnd80/05071909292D

 35 39  0  0  0  0  0  0  0  0999 V2000
    3.6373    3.5000    0.0000 C   0  0  0  0  0  0  0  0  0  0  0  0
    3.6373    2.1000    0.0000 C   0  0  0  0  0  0  0  0  0  0  0  0
    4.8497    1.4000    0.0000 C   0  0  0  0  0  0  0  0  0  0  0  0
    6.0622    2.1000    0.0000 C   0  0  0  0  0  0  0  0  0  0  0  0
    6.0622    3.5000    0.0000 C   0  0  0  0  0  0  0  0  0  0  0  0
    4.8497    4.2000    0.0000 N   0  0  0  0  0  0  0  0  0  0  0  0
    4.8497    5.6000    0.0000 C   0  0  0  0  0  0  0  0  0  0  0  0
    4.8497    0.0000    0.0000 O   0  0  0  0  0  0  0  0  0  0  0  0
    6.0622    6.3000    0.0000 C   0  0  0  0  0  0  0  0  0  0  0  0
    6.0622    7.7000    0.0000 C   0  0  0  0  0  0  0  0  0  0  0  0
    4.8497    8.4000    0.0000 C   0  0  0  0  0  0  0  0  0  0  0  0
    3.6373    7.7000    0.0000 C   0  0  0  0  0  0  0  0  0  0  0  0
    3.6373    6.3000    0.0000 C   0  0  0  0  0  0  0  0  0  0  0  0
    2.4249    8.4000    0.0000 O   0  0  0  0  0  0  0  0  0  0  0  0
    1.2124    7.7000    0.0000 C   0  0  0  0  0  0  0  0  0  0  0  0
    0.0000    8.4000    0.0000 C   0  0  0  0  0  0  0  0  0  0  0  0
    4.8497    9.8000    0.0000 N   0  0  0  0  0  0  0  0  0  0  0  0
    6.0622   10.5000    0.0000 C   0  0  0  0  0  0  0  0  0  0  0  0
    7.2746    9.8000    0.0000 N   0  0  0  0  0  0  0  0  0  0  0  0
    8.4870   10.5000    0.0000 C   0  0  0  0  0  0  0  0  0  0  0  0
    8.4870   11.9000    0.0000 C   0  0  0  0  0  0  0  0  0  0  0  0
    7.2746   12.6000    0.0000 C   0  0  0  0  0  0  0  0  0  0  0  0
    6.0622   11.9000    0.0000 N   0  0  0  0  0  0  0  0  0  0  0  0
    9.5816    9.6271    0.0000 N   0  0  0  0  0  0  0  0  0  0  0  0
   10.9465    9.9386    0.0000 C   0  0  0  0  0  0  0  0  0  0  0  0
   11.5539   11.2000    0.0000 C   0  0  0  0  0  0  0  0  0  0  0  0
   10.9465   12.4614    0.0000 C   0  0  0  0  0  0  0  0  0  0  0  0
    9.5816   12.7729    0.0000 N   0  0  0  0  0  0  0  0  0  0  0  0
    9.2701   14.1378    0.0000 C   0  0  0  0  0  0  0  0  0  0  0  0
    9.2701    8.2622    0.0000 C   0  0  0  0  0  0  0  0  0  0  0  0
   11.8194   13.5559    0.0000 O   0  0  0  0  0  0  0  0  0  0  0  0
   11.7352    8.7819    0.0000 C   0  0  0  0  0  0  0  0  0  0  0  0
   13.1312    8.8865    0.0000 C   0  0  0  0  0  0  0  0  0  0  0  0
   13.7387   10.1479    0.0000 C   0  0  0  0  0  0  0  0  0  0  0  0
   12.9500   11.3046    0.0000 C   0  0  0  0  0  0  0  0  0  0  0  0
  1  2  1  0  0  0  0
  2  3  1  0  0  0  0
  3  4  1  0  0  0  0
  4  5  1  0  0  0  0
  5  6  1  0  0  0  0
  6  1  1  0  0  0  0
  6  7  1  0  0  0  0
  3  8  1  0  0  0  0
  7  9  2  0  0  0  0
  9 10  1  0  0  0  0
 10 11  2  0  0  0  0
 11 12  1  0  0  0  0
 12 13  2  0  0  0  0
 13  7  1  0  0  0  0
 12 14  1  0  0  0  0
 14 15  1  0  0  0  0
 15 16  1  0  0  0  0
 11 17  1  0  0  0  0
 17 18  1  0  0  0  0
 18 19  2  0  0  0  0
 19 20  1  0  0  0  0
 20 21  2  0  0  0  0
 21 22  1  0  0  0  0
 22 23  2  0  0  0  0
 23 18  1  0  0  0  0
 20 24  1  0  0  0  0
 24 25  1  0  0  0  0
 25 26  2  0  0  0  0
 26 27  1  0  0  0  0
 27 28  1  0  0  0  0
 28 21  1  0  0  0  0
 28 29  1  0  0  0  0
 24 30  1  0  0  0  0
 27 31  2  0  0  0  0
 25 32  1  0  0  0  0
 32 33  2  0  0  0  0
 33 34  1  0  0  0  0
 34 35  2  0  0  0  0
 35 26  1  0  0  0  0
M  END
>  <Mol_ID> (435)
2733

>  <Formula> (435)
C26H30N6O3

>  <MolWeight> (435)
474.5548

>  <Cat> (435)
S7525

>  <Name> (435)
XMD8-92

>  <Synonyms> (435)
N/A

>  <Target> (435)
ERK

>  <Form> (435)
Free Base

>  <CAS> (435)
1234480-50-2

>  <URL> (435)
http://www.selleckchem.com/products/xmd8-92.html

$$$$
CGI1746 .cdx
csChFnd80/05071909292D

 43 47  0  0  0  0  0  0  0  0999 V2000
    8.4014    6.0836    0.0000 C   0  0  0  0  0  0  0  0  0  0  0  0
    9.1394    4.9116    0.0000 N   0  0  0  0  0  0  0  0  0  0  0  0
   10.5570    4.9694    0.0000 C   0  0  0  0  0  0  0  0  0  0  0  0
   11.2001    6.1913    0.0000 C   0  0  0  0  0  0  0  0  0  0  0  0
   10.4491    7.3897    0.0000 N   0  0  0  0  0  0  0  0  0  0  0  0
    9.0456    7.3276    0.0000 C   0  0  0  0  0  0  0  0  0  0  0  0
    8.3456    8.5400    0.0000 O   0  0  0  0  0  0  0  0  0  0  0  0
   11.1491    8.6022    0.0000 C   0  0  0  0  0  0  0  0  0  0  0  0
    7.0021    6.0836    0.0000 N   0  0  0  0  0  0  0  0  0  0  0  0
    6.2928    4.8551    0.0000 C   0  0  0  0  0  0  0  0  0  0  0  0
    4.9021    4.8497    0.0000 C   0  0  0  0  0  0  0  0  0  0  0  0
    4.2021    3.6373    0.0000 C   0  0  0  0  0  0  0  0  0  0  0  0
    4.9021    2.4249    0.0000 C   0  0  0  0  0  0  0  0  0  0  0  0
    6.3021    2.4249    0.0000 C   0  0  0  0  0  0  0  0  0  0  0  0
    7.0021    3.6373    0.0000 C   0  0  0  0  0  0  0  0  0  0  0  0
    4.2021    1.2124    0.0000 C   0  0  0  0  0  0  0  0  0  0  0  0
    4.9021    0.0000    0.0000 O   0  0  0  0  0  0  0  0  0  0  0  0
    2.8021    1.2124    0.0000 N   0  0  0  0  0  0  0  0  0  0  0  0
    2.0993    2.4251    0.0000 C   0  0  0  0  0  0  0  0  0  0  0  0
    0.6993    2.4249    0.0000 C   0  0  0  0  0  0  0  0  0  0  0  0
    0.0000    1.2121    0.0000 O   0  0  0  0  0  0  0  0  0  0  0  0
    0.6995    0.0001    0.0000 C   0  0  0  0  0  0  0  0  0  0  0  0
    2.0995    0.0002    0.0000 C   0  0  0  0  0  0  0  0  0  0  0  0
   11.2570    3.7569    0.0000 C   0  0  0  0  0  0  0  0  0  0  0  0
   10.6153    2.5342    0.0000 C   0  0  0  0  0  0  0  0  0  0  0  0
   11.3510    1.3447    0.0000 C   0  0  0  0  0  0  0  0  0  0  0  0
   12.7504    1.3879    0.0000 C   0  0  0  0  0  0  0  0  0  0  0  0
   13.4126    2.6437    0.0000 C   0  0  0  0  0  0  0  0  0  0  0  0
   12.6560    3.8225    0.0000 C   0  0  0  0  0  0  0  0  0  0  0  0
   13.3560    5.0349    0.0000 C   0  0  0  0  0  0  0  0  0  0  0  0
   14.8119    2.6437    0.0000 N   0  0  0  0  0  0  0  0  0  0  0  0
   15.5022    1.4480    0.0000 C   0  0  0  0  0  0  0  0  0  0  0  0
   16.9119    1.4480    0.0000 C   0  0  0  0  0  0  0  0  0  0  0  0
   17.6119    0.2412    0.0000 C   0  0  0  0  0  0  0  0  0  0  0  0
   19.0119    0.2412    0.0000 C   0  0  0  0  0  0  0  0  0  0  0  0
   19.7119    1.4536    0.0000 C   0  0  0  0  0  0  0  0  0  0  0  0
   19.0119    2.6661    0.0000 C   0  0  0  0  0  0  0  0  0  0  0  0
   17.6119    2.6661    0.0000 C   0  0  0  0  0  0  0  0  0  0  0  0
   21.1119    1.4536    0.0000 C   0  0  0  0  0  0  0  0  0  0  0  0
   21.1119    0.0536    0.0000 C   0  0  0  0  0  0  0  0  0  0  0  0
   21.1119    2.8536    0.0000 C   0  0  0  0  0  0  0  0  0  0  0  0
   22.5119    1.4536    0.0000 C   0  0  0  0  0  0  0  0  0  0  0  0
   14.8071    0.2440    0.0000 O   0  0  0  0  0  0  0  0  0  0  0  0
  1  2  2  0  0  0  0
  2  3  1  0  0  0  0
  3  4  2  0  0  0  0
  4  5  1  0  0  0  0
  5  6  1  0  0  0  0
  6  1  1  0  0  0  0
  6  7  2  0  0  0  0
  5  8  1  0  0  0  0
  1  9  1  0  0  0  0
  9 10  1  0  0  0  0
 10 11  2  0  0  0  0
 11 12  1  0  0  0  0
 12 13  2  0  0  0  0
 13 14  1  0  0  0  0
 14 15  2  0  0  0  0
 15 10  1  0  0  0  0
 13 16  1  0  0  0  0
 16 17  2  0  0  0  0
 16 18  1  0  0  0  0
 18 19  1  0  0  0  0
 19 20  1  0  0  0  0
 20 21  1  0  0  0  0
 21 22  1  0  0  0  0
 22 23  1  0  0  0  0
 23 18  1  0  0  0  0
  3 24  1  0  0  0  0
 24 25  2  0  0  0  0
 25 26  1  0  0  0  0
 26 27  2  0  0  0  0
 27 28  1  0  0  0  0
 28 29  2  0  0  0  0
 29 24  1  0  0  0  0
 29 30  1  0  0  0  0
 28 31  1  0  0  0  0
 31 32  1  0  0  0  0
 32 33  1  0  0  0  0
 33 34  2  0  0  0  0
 34 35  1  0  0  0  0
 35 36  2  0  0  0  0
 36 37  1  0  0  0  0
 37 38  2  0  0  0  0
 38 33  1  0  0  0  0
 36 39  1  0  0  0  0
 39 40  1  0  0  0  0
 39 41  1  0  0  0  0
 39 42  1  0  0  0  0
 32 43  2  0  0  0  0
M  END
>  <Mol_ID> (436)
2737

>  <Formula> (436)
C34H37N5O4

>  <MolWeight> (436)
579.68868

>  <Cat> (436)
S7051

>  <Name> (436)
CGI1746

>  <Synonyms> (436)
N/A

>  <Target> (436)
BTK

>  <Form> (436)
Free Base

>  <CAS> (436)
910232-84-7

>  <URL> (436)
http://www.selleckchem.com/products/cgi1746.html

$$$$
PF-3758309.cdx
csChFnd80/05071909292D

 35 39  0  0  0  0  0  0  0  0999 V2000
    2.1544    5.6094    0.0000 C   0  0  0  0  0  0  0  0  0  0  0  0
    2.1544    4.2094    0.0000 C   0  0  0  0  0  0  0  0  0  0  0  0
    3.3668    3.5094    0.0000 N   0  0  0  0  0  0  0  0  0  0  0  0
    4.5792    4.2094    0.0000 C   0  0  0  0  0  0  0  0  0  0  0  0
    4.5792    5.6094    0.0000 N   0  0  0  0  0  0  0  0  0  0  0  0
    3.3668    6.3094    0.0000 C   0  0  0  0  0  0  0  0  0  0  0  0
    0.8229    6.0420    0.0000 S   0  0  0  0  0  0  0  0  0  0  0  0
    0.0000    4.9094    0.0000 C   0  0  0  0  0  0  0  0  0  0  0  0
    0.8229    3.7767    0.0000 C   0  0  0  0  0  0  0  0  0  0  0  0
    3.3668    7.7094    0.0000 N   0  0  0  0  0  0  0  0  0  0  0  0
    5.7917    3.5094    0.0000 C   0  0  0  0  0  0  0  0  0  0  0  0
    4.5792    8.4094    0.0000 C   0  0  0  0  0  0  0  0  0  0  0  0
    5.8582    7.8399    0.0000 C   0  0  0  0  0  0  0  0  0  0  0  0
    6.7950    8.8803    0.0000 C   0  0  0  0  0  0  0  0  0  0  0  0
    6.0950   10.0928    0.0000 N   0  0  0  0  0  0  0  0  0  0  0  0
    4.7256    9.8017    0.0000 N   0  0  0  0  0  0  0  0  0  0  0  0
    6.5582    6.6275    0.0000 C   0  0  0  0  0  0  0  0  0  0  0  0
    7.9276    6.9186    0.0000 N   0  0  0  0  0  0  0  0  0  0  0  0
    8.0740    8.3109    0.0000 C   0  0  0  0  0  0  0  0  0  0  0  0
    8.9680    5.9818    0.0000 C   0  0  0  0  0  0  0  0  0  0  0  0
   10.2995    6.4144    0.0000 O   0  0  0  0  0  0  0  0  0  0  0  0
    8.6769    4.6124    0.0000 N   0  0  0  0  0  0  0  0  0  0  0  0
    9.7173    3.6756    0.0000 C   0  0  2  0  0  0  0  0  0  0  0  0
    9.4263    2.3062    0.0000 C   0  0  0  0  0  0  0  0  0  0  0  0
   10.4667    1.3694    0.0000 N   0  0  0  0  0  0  0  0  0  0  0  0
   10.1756    0.0000    0.0000 C   0  0  0  0  0  0  0  0  0  0  0  0
   11.7982    1.8020    0.0000 C   0  0  0  0  0  0  0  0  0  0  0  0
   11.0488    4.1082    0.0000 C   0  0  0  0  0  0  0  0  0  0  0  0
   12.0892    3.1714    0.0000 C   0  0  0  0  0  0  0  0  0  0  0  0
   13.4207    3.6041    0.0000 C   0  0  0  0  0  0  0  0  0  0  0  0
   13.7118    4.9735    0.0000 C   0  0  0  0  0  0  0  0  0  0  0  0
   12.6714    5.9102    0.0000 C   0  0  0  0  0  0  0  0  0  0  0  0
   11.3399    5.4776    0.0000 C   0  0  0  0  0  0  0  0  0  0  0  0
    8.0740    9.7109    0.0000 C   0  0  0  0  0  0  0  0  0  0  0  0
    9.4263    7.9486    0.0000 C   0  0  0  0  0  0  0  0  0  0  0  0
  1  2  2  0  0  0  0
  2  3  1  0  0  0  0
  3  4  2  0  0  0  0
  4  5  1  0  0  0  0
  5  6  2  0  0  0  0
  6  1  1  0  0  0  0
  1  7  1  0  0  0  0
  7  8  1  0  0  0  0
  8  9  2  0  0  0  0
  9  2  1  0  0  0  0
  6 10  1  0  0  0  0
  4 11  1  0  0  0  0
 10 12  1  0  0  0  0
 12 13  1  0  0  0  0
 13 14  2  0  0  0  0
 14 15  1  0  0  0  0
 15 16  1  0  0  0  0
 16 12  2  0  0  0  0
 13 17  1  0  0  0  0
 17 18  1  0  0  0  0
 18 19  1  0  0  0  0
 19 14  1  0  0  0  0
 18 20  1  0  0  0  0
 20 21  2  0  0  0  0
 20 22  1  0  0  0  0
 22 23  1  0  0  0  0
 23 24  1  0  0  0  0
 24 25  1  0  0  0  0
 25 26  1  0  0  0  0
 25 27  1  0  0  0  0
 23 28  1  1  0  0  0
 28 29  2  0  0  0  0
 29 30  1  0  0  0  0
 30 31  2  0  0  0  0
 31 32  1  0  0  0  0
 32 33  2  0  0  0  0
 33 28  1  0  0  0  0
 19 34  1  0  0  0  0
 19 35  1  0  0  0  0
M  END
>  <Mol_ID> (437)
2743

>  <Formula> (437)
C25H30N8OS

>  <MolWeight> (437)
490.6237

>  <Cat> (437)
S7094

>  <Name> (437)
PF-3758309

>  <Synonyms> (437)
PF-03758309

>  <Target> (437)
PAK

>  <Form> (437)
Free Base

>  <CAS> (437)
898044-15-0

>  <URL> (437)
http://www.selleckchem.com/products/pf-3758309.html

$$$$
BMS863233.cdx
csChFnd80/05071909292D

 21 23  0  0  0  0  0  0  0  0999 V2000
    2.9699    5.4974    0.0000 C   0  0  0  0  0  0  0  0  0  0  0  0
    3.3322    4.1451    0.0000 C   0  0  0  0  0  0  0  0  0  0  0  0
    4.7303    4.0718    0.0000 C   0  0  0  0  0  0  0  0  0  0  0  0
    5.2320    5.3788    0.0000 C   0  0  0  0  0  0  0  0  0  0  0  0
    4.1440    6.2599    0.0000 O   0  0  0  0  0  0  0  0  0  0  0  0
    1.6176    5.8597    0.0000 C   0  0  0  0  0  0  0  0  0  0  0  0
    0.6276    4.8698    0.0000 C   0  0  0  0  0  0  0  0  0  0  0  0
    0.9900    3.5175    0.0000 C   0  0  0  0  0  0  0  0  0  0  0  0
    2.3422    3.1551    0.0000 C   0  0  0  0  0  0  0  0  0  0  0  0
    5.6113    2.9838    0.0000 N   0  0  0  0  0  0  0  0  0  0  0  0
    6.9941    3.2028    0.0000 C   0  0  0  0  0  0  0  0  0  0  0  0
    7.4958    4.5098    0.0000 N   0  0  0  0  0  0  0  0  0  0  0  0
    6.6148    5.5978    0.0000 C   0  0  0  0  0  0  0  0  0  0  0  0
    0.0000    2.5275    0.0000 Cl  0  0  0  0  0  0  0  0  0  0  0  0
    7.1165    6.9048    0.0000 O   0  0  0  0  0  0  0  0  0  0  0  0
    7.8751    2.1148    0.0000 C   0  0  1  0  0  0  0  0  0  0  0  0
    7.5128    0.7625    0.0000 N   0  0  0  0  0  0  0  0  0  0  0  0
    8.6869    0.0000    0.0000 C   0  0  0  0  0  0  0  0  0  0  0  0
    9.7749    0.8810    0.0000 C   0  0  0  0  0  0  0  0  0  0  0  0
    9.2732    2.1881    0.0000 C   0  0  0  0  0  0  0  0  0  0  0  0
    3.2271    1.0892    0.0000 Cl  0  0  0  0  0  0  0  0  0  0  0  0
  1  2  2  0  0  0  0
  2  3  1  0  0  0  0
  3  4  2  0  0  0  0
  4  5  1  0  0  0  0
  5  1  1  0  0  0  0
  1  6  1  0  0  0  0
  6  7  2  0  0  0  0
  7  8  1  0  0  0  0
  8  9  2  0  0  0  0
  9  2  1  0  0  0  0
  3 10  1  0  0  0  0
 10 11  2  0  0  0  0
 11 12  1  0  0  0  0
 13  4  1  0  0  0  0
  8 14  1  0  0  0  0
 13 15  2  0  0  0  0
 13 12  1  0  0  0  0
 16 11  1  6  0  0  0
 16 17  1  0  0  0  0
 17 18  1  0  0  0  0
 18 19  1  0  0  0  0
 19 20  1  0  0  0  0
 20 16  1  0  0  0  0
M  END
>  <Mol_ID> (438)
2750

>  <Formula> (438)
C14H13Cl2N3O2

>  <MolWeight> (438)
326.17792

>  <Cat> (438)
S7547

>  <Name> (438)
XL413 (BMS-863233)

>  <Synonyms> (438)
N/A

>  <Target> (438)
CDK

>  <Form> (438)
Free Base

>  <CAS> (438)
1169562-71-3

>  <URL> (438)
http://www.selleckchem.com/products/xl413-bms-863233.html

$$$$
FR 180204.cdx
csChFnd80/05071909292D

 25 29  0  0  0  0  0  0  0  0999 V2000
    0.0000    2.1000    0.0000 C   0  0  0  0  0  0  0  0  0  0  0  0
    0.0000    0.7000    0.0000 C   0  0  0  0  0  0  0  0  0  0  0  0
    1.2124    0.0000    0.0000 C   0  0  0  0  0  0  0  0  0  0  0  0
    2.4249    0.7000    0.0000 N   0  0  0  0  0  0  0  0  0  0  0  0
    2.4249    2.1000    0.0000 C   0  0  0  0  0  0  0  0  0  0  0  0
    1.2124    2.8000    0.0000 C   0  0  0  0  0  0  0  0  0  0  0  0
    3.7563    0.2674    0.0000 N   0  0  0  0  0  0  0  0  0  0  0  0
    4.5792    1.4000    0.0000 C   0  0  0  0  0  0  0  0  0  0  0  0
    3.7563    2.5326    0.0000 C   0  0  0  0  0  0  0  0  0  0  0  0
    4.1890    3.8641    0.0000 C   0  0  0  0  0  0  0  0  0  0  0  0
    5.9792    1.4000    0.0000 C   0  0  0  0  0  0  0  0  0  0  0  0
    6.6792    0.1876    0.0000 C   0  0  0  0  0  0  0  0  0  0  0  0
    8.0792    0.1876    0.0000 C   0  0  0  0  0  0  0  0  0  0  0  0
    8.7792    1.4000    0.0000 C   0  0  0  0  0  0  0  0  0  0  0  0
    8.0792    2.6124    0.0000 C   0  0  0  0  0  0  0  0  0  0  0  0
    6.6792    2.6124    0.0000 C   0  0  0  0  0  0  0  0  0  0  0  0
    5.5584    4.1552    0.0000 C   0  0  0  0  0  0  0  0  0  0  0  0
    5.9910    5.4867    0.0000 C   0  0  0  0  0  0  0  0  0  0  0  0
    5.0542    6.5271    0.0000 C   0  0  0  0  0  0  0  0  0  0  0  0
    3.6848    6.2360    0.0000 N   0  0  0  0  0  0  0  0  0  0  0  0
    3.2522    4.9045    0.0000 N   0  0  0  0  0  0  0  0  0  0  0  0
    7.2700    6.0561    0.0000 C   0  0  0  0  0  0  0  0  0  0  0  0
    7.1236    7.4484    0.0000 N   0  0  0  0  0  0  0  0  0  0  0  0
    5.7542    7.7395    0.0000 N   0  0  0  0  0  0  0  0  0  0  0  0
    8.4824    5.3561    0.0000 N   0  0  0  0  0  0  0  0  0  0  0  0
  2  3  2  0  0  0  0
  4  5  1  0  0  0  0
  6  1  2  0  0  0  0
  4  7  1  0  0  0  0
  7  8  2  0  0  0  0
  8  9  1  0  0  0  0
  9  5  2  0  0  0  0
  9 10  1  0  0  0  0
  1  2  1  0  0  0  0
  3  4  1  0  0  0  0
  6  5  1  0  0  0  0
  8 11  1  0  0  0  0
 11 12  2  0  0  0  0
 12 13  1  0  0  0  0
 13 14  2  0  0  0  0
 14 15  1  0  0  0  0
 15 16  2  0  0  0  0
 16 11  1  0  0  0  0
 10 17  2  0  0  0  0
 17 18  1  0  0  0  0
 18 19  2  0  0  0  0
 19 20  1  0  0  0  0
 20 21  2  0  0  0  0
 21 10  1  0  0  0  0
 18 22  1  0  0  0  0
 22 23  2  0  0  0  0
 23 24  1  0  0  0  0
 24 19  1  0  0  0  0
 22 25  1  0  0  0  0
M  END
>  <Mol_ID> (439)
2751

>  <Formula> (439)
C18H13N7

>  <MolWeight> (439)
327.34272

>  <Cat> (439)
S7524

>  <Name> (439)
FR 180204

>  <Synonyms> (439)
N/A

>  <Target> (439)
ERK

>  <Form> (439)
Free Base

>  <CAS> (439)
865362-74-9

>  <URL> (439)
http://www.selleckchem.com/products/fr180204.html

$$$$
GNE7915.cdx
csChFnd80/05071909292D

 31 33  0  0  0  0  0  0  0  0999 V2000
    2.4249    2.1000    0.0000 C   0  0  0  0  0  0  0  0  0  0  0  0
    2.4249    0.7000    0.0000 C   0  0  0  0  0  0  0  0  0  0  0  0
    3.6373    0.0000    0.0000 N   0  0  0  0  0  0  0  0  0  0  0  0
    4.8497    0.7000    0.0000 C   0  0  0  0  0  0  0  0  0  0  0  0
    4.8497    2.1000    0.0000 N   0  0  0  0  0  0  0  0  0  0  0  0
    3.6373    2.8000    0.0000 C   0  0  0  0  0  0  0  0  0  0  0  0
    1.2124    2.8000    0.0000 C   0  0  0  0  0  0  0  0  0  0  0  0
    3.6373    4.2000    0.0000 N   0  0  0  0  0  0  0  0  0  0  0  0
    6.0622    0.0000    0.0000 N   0  0  0  0  0  0  0  0  0  0  0  0
    7.2746    0.7000    0.0000 C   0  0  0  0  0  0  0  0  0  0  0  0
    8.4870    0.0000    0.0000 C   0  0  0  0  0  0  0  0  0  0  0  0
    9.6995    0.7000    0.0000 C   0  0  0  0  0  0  0  0  0  0  0  0
    9.6995    2.1000    0.0000 C   0  0  0  0  0  0  0  0  0  0  0  0
    8.4870    2.8000    0.0000 C   0  0  0  0  0  0  0  0  0  0  0  0
    7.2746    2.1000    0.0000 C   0  0  0  0  0  0  0  0  0  0  0  0
    6.0622    2.8000    0.0000 O   0  0  0  0  0  0  0  0  0  0  0  0
    6.0622    4.2000    0.0000 C   0  0  0  0  0  0  0  0  0  0  0  0
   10.9119    0.0000    0.0000 F   0  0  0  0  0  0  0  0  0  0  0  0
   10.9119    2.8000    0.0000 C   0  0  0  0  0  0  0  0  0  0  0  0
   12.1244    2.1000    0.0000 N   0  0  0  0  0  0  0  0  0  0  0  0
   12.1244    0.7000    0.0000 C   0  0  0  0  0  0  0  0  0  0  0  0
   13.3368    0.0000    0.0000 C   0  0  0  0  0  0  0  0  0  0  0  0
   14.5492    0.7000    0.0000 O   0  0  0  0  0  0  0  0  0  0  0  0
   14.5492    2.1000    0.0000 C   0  0  0  0  0  0  0  0  0  0  0  0
   13.3368    2.8000    0.0000 C   0  0  0  0  0  0  0  0  0  0  0  0
   10.9119    4.2000    0.0000 O   0  0  0  0  0  0  0  0  0  0  0  0
    0.0000    2.1000    0.0000 F   0  0  0  0  0  0  0  0  0  0  0  0
    1.2124    4.2000    0.0000 F   0  0  0  0  0  0  0  0  0  0  0  0
    2.4249    3.5000    0.0000 F   0  0  0  0  0  0  0  0  0  0  0  0
    4.8497    4.9000    0.0000 C   0  0  0  0  0  0  0  0  0  0  0  0
    4.8497    6.3000    0.0000 C   0  0  0  0  0  0  0  0  0  0  0  0
  1  2  2  0  0  0  0
  2  3  1  0  0  0  0
  3  4  2  0  0  0  0
  4  5  1  0  0  0  0
  5  6  2  0  0  0  0
  6  1  1  0  0  0  0
  1  7  1  0  0  0  0
  6  8  1  0  0  0  0
  4  9  1  0  0  0  0
  9 10  1  0  0  0  0
 10 11  2  0  0  0  0
 11 12  1  0  0  0  0
 12 13  2  0  0  0  0
 13 14  1  0  0  0  0
 14 15  2  0  0  0  0
 15 10  1  0  0  0  0
 15 16  1  0  0  0  0
 16 17  1  0  0  0  0
 12 18  1  0  0  0  0
 13 19  1  0  0  0  0
 19 20  1  0  0  0  0
 20 21  1  0  0  0  0
 21 22  1  0  0  0  0
 22 23  1  0  0  0  0
 23 24  1  0  0  0  0
 24 25  1  0  0  0  0
 25 20  1  0  0  0  0
 19 26  2  0  0  0  0
  7 27  1  0  0  0  0
  7 28  1  0  0  0  0
  7 29  1  0  0  0  0
  8 30  1  0  0  0  0
 30 31  1  0  0  0  0
M  END
>  <Mol_ID> (440)
2755

>  <Formula> (440)
C19H21F4N5O3

>  <MolWeight> (440)
443.3953528

>  <Cat> (440)
S7528

>  <Name> (440)
GNE-7915

>  <Synonyms> (440)
N/A

>  <Target> (440)
Others

>  <Form> (440)
Free Base

>  <CAS> (440)
1351761-44-8

>  <URL> (440)
http://www.selleckchem.com/products/gne-7915.html

$$$$
PD173955 .cdx
csChFnd80/05071909292D

 29 32  0  0  0  0  0  0  0  0999 V2000
    3.6373    4.2000    0.0000 C   0  0  0  0  0  0  0  0  0  0  0  0
    3.6373    2.8000    0.0000 C   0  0  0  0  0  0  0  0  0  0  0  0
    4.8497    2.1000    0.0000 C   0  0  0  0  0  0  0  0  0  0  0  0
    6.0622    2.8000    0.0000 C   0  0  3  0  0  0  0  0  0  0  0  0
    6.0622    4.2000    0.0000 C   0  0  3  0  0  0  0  0  0  0  0  0
    4.8497    4.9000    0.0000 N   0  0  0  0  0  0  0  0  0  0  0  0
    7.2746    2.1000    0.0000 C   0  0  0  0  0  0  0  0  0  0  0  0
    8.4871    2.8000    0.0000 N   0  0  0  0  0  0  0  0  0  0  0  0
    8.4871    4.2000    0.0000 C   0  0  0  0  0  0  0  0  0  0  0  0
    7.2746    4.9000    0.0000 N   0  0  0  0  0  0  0  0  0  0  0  0
    9.6995    4.9000    0.0000 N   0  0  0  0  0  0  0  0  0  0  0  0
   10.9119    4.2000    0.0000 C   0  0  0  0  0  0  0  0  0  0  0  0
   10.9119    2.8000    0.0000 C   0  0  0  0  0  0  0  0  0  0  0  0
   12.1244    2.1000    0.0000 C   0  0  0  0  0  0  0  0  0  0  0  0
   13.3368    2.8000    0.0000 C   0  0  0  0  0  0  0  0  0  0  0  0
   13.3368    4.2000    0.0000 C   0  0  0  0  0  0  0  0  0  0  0  0
   12.1244    4.9000    0.0000 C   0  0  0  0  0  0  0  0  0  0  0  0
    2.4249    2.1000    0.0000 C   0  0  0  0  0  0  0  0  0  0  0  0
    1.2124    2.8000    0.0000 C   0  0  0  0  0  0  0  0  0  0  0  0
    0.0000    2.1000    0.0000 C   0  0  0  0  0  0  0  0  0  0  0  0
    0.0000    0.7000    0.0000 C   0  0  0  0  0  0  0  0  0  0  0  0
    1.2124    0.0000    0.0000 C   0  0  0  0  0  0  0  0  0  0  0  0
    2.4249    0.7000    0.0000 C   0  0  0  0  0  0  0  0  0  0  0  0
    1.2124    4.2000    0.0000 Cl  0  0  0  0  0  0  0  0  0  0  0  0
    3.6373    0.0000    0.0000 Cl  0  0  0  0  0  0  0  0  0  0  0  0
    2.4249    4.9000    0.0000 O   0  0  0  0  0  0  0  0  0  0  0  0
   14.5492    4.9000    0.0000 S   0  0  0  0  0  0  0  0  0  0  0  0
   15.7617    4.2000    0.0000 C   0  0  0  0  0  0  0  0  0  0  0  0
    4.8497    6.3000    0.0000 C   0  0  0  0  0  0  0  0  0  0  0  0
  1  2  1  0  0  0  0
  2  3  2  0  0  0  0
  3  4  1  0  0  0  0
  4  5  1  0  0  0  0
  5  6  1  0  0  0  0
  6  1  1  0  0  0  0
  4  7  1  0  0  0  0
  7  8  2  0  0  0  0
  8  9  1  0  0  0  0
  9 10  2  0  0  0  0
 10  5  1  0  0  0  0
  9 11  1  0  0  0  0
 11 12  1  0  0  0  0
 12 13  2  0  0  0  0
 13 14  1  0  0  0  0
 14 15  2  0  0  0  0
 15 16  1  0  0  0  0
 16 17  2  0  0  0  0
 17 12  1  0  0  0  0
  2 18  1  0  0  0  0
 18 19  2  0  0  0  0
 19 20  1  0  0  0  0
 20 21  2  0  0  0  0
 21 22  1  0  0  0  0
 22 23  2  0  0  0  0
 23 18  1  0  0  0  0
 19 24  1  0  0  0  0
 23 25  1  0  0  0  0
  1 26  2  0  0  0  0
 16 27  1  0  0  0  0
 27 28  1  0  0  0  0
  6 29  1  0  0  0  0
M  END
>  <Mol_ID> (441)
2757

>  <Formula> (441)
C21H18Cl2N4OS

>  <MolWeight> (441)
445.36482

>  <Cat> (441)
S7269

>  <Name> (441)
PD173955

>  <Synonyms> (441)
N/A 

>  <Target> (441)
Bcr-Abl

>  <Form> (441)
Free Base

>  <CAS> (441)
260415-63-2

>  <URL> (441)
http://www.selleckchem.com/products/pd173955.html

$$$$
Zotarolimus.cdx
csChFnd80/05071909292D

 70 74  0  0  0  0  0  0  0  0999 V2000
    1.6539    3.5000    0.0000 C   0  0  2  0  0  0  0  0  0  0  0  0
    1.6539    2.1000    0.0000 C   0  0  0  0  0  0  0  0  0  0  0  0
    2.8664    1.4000    0.0000 C   0  0  0  0  0  0  0  0  0  0  0  0
    4.0788    2.1000    0.0000 C   0  0  2  0  0  0  0  0  0  0  0  0
    4.0788    3.5000    0.0000 O   0  0  0  0  0  0  0  0  0  0  0  0
    2.8664    4.2000    0.0000 C   0  0  1  0  0  0  0  0  0  0  0  0
    5.2912    1.4000    0.0000 C   0  0  0  0  0  0  0  0  0  0  0  0
    6.5037    2.1000    0.0000 C   0  0  1  0  0  0  0  0  0  0  0  0
    7.7161    1.4000    0.0000 C   0  0  0  0  0  0  0  0  0  0  0  0
    8.9285    2.1000    0.0000 C   0  0  0  0  0  0  0  0  0  0  0  0
   10.1410    1.4000    0.0000 C   0  0  0  0  0  0  0  0  0  0  0  0
   11.3534    2.1000    0.0000 C   0  0  0  0  0  0  0  0  0  0  0  0
   12.5658    1.4000    0.0000 C   0  0  0  0  0  0  0  0  0  0  0  0
   13.7783    2.1000    0.0000 C   0  0  0  0  0  0  0  0  0  0  0  0
   14.9907    1.4000    0.0000 C   0  0  2  0  0  0  0  0  0  0  0  0
    0.4415    4.2000    0.0000 C   0  0  0  0  0  0  0  0  0  0  0  0
    2.8664    5.6000    0.0000 C   0  0  0  0  0  0  0  0  0  0  0  0
    1.8764    5.1899    0.0000 O   0  0  0  0  0  0  0  0  0  0  0  0
    6.5037    3.5000    0.0000 O   0  0  0  0  0  0  0  0  0  0  0  0
    5.2912    4.2000    0.0000 C   0  0  0  0  0  0  0  0  0  0  0  0
    7.7161    0.0000    0.0000 C   0  0  0  0  0  0  0  0  0  0  0  0
   16.2031    2.1000    0.0000 C   0  0  0  0  0  0  0  0  0  0  0  0
   14.9907    0.0000    0.0000 C   0  0  0  0  0  0  0  0  0  0  0  0
   15.5031    3.3124    0.0000 C   0  0  2  0  0  0  0  0  0  0  0  0
   15.5031    4.7124    0.0000 C   0  0  0  0  0  0  0  0  0  0  0  0
   14.1508    2.9501    0.0000 C   0  0  0  0  0  0  0  0  0  0  0  0
   14.2907    5.4124    0.0000 C   0  0  2  0  0  0  0  0  0  0  0  0
   16.7156    5.4124    0.0000 O   0  0  0  0  0  0  0  0  0  0  0  0
   13.0783    4.7124    0.0000 O   0  0  0  0  0  0  0  0  0  0  0  0
   13.0783    3.3124    0.0000 C   0  0  0  0  0  0  0  0  0  0  0  0
   14.2907    6.8124    0.0000 C   0  0  2  0  0  0  0  0  0  0  0  0
   15.5031    7.5124    0.0000 O   0  0  0  0  0  0  0  0  0  0  0  0
   13.0783    7.5124    0.0000 C   0  0  0  0  0  0  0  0  0  0  0  0
   11.8658    6.8124    0.0000 C   0  0  0  0  0  0  0  0  0  0  0  0
   13.0783    8.9124    0.0000 C   0  0  0  0  0  0  0  0  0  0  0  0
   11.8658    9.6124    0.0000 C   0  0  2  0  0  0  0  0  0  0  0  0
   10.6534    8.9124    0.0000 C   0  0  0  0  0  0  0  0  0  0  0  0
   11.8658   11.0124    0.0000 C   0  0  0  0  0  0  0  0  0  0  0  0
    9.4410    9.6124    0.0000 C   0  0  0  0  0  0  0  0  0  0  0  0
    1.6539    6.3000    0.0000 O   0  0  0  0  0  0  0  0  0  0  0  0
    4.0788    6.3000    0.0000 C   0  0  0  0  0  0  0  0  0  0  0  0
    5.2912    5.6000    0.0000 O   0  0  0  0  0  0  0  0  0  0  0  0
    4.0788    7.7000    0.0000 N   0  0  0  0  0  0  0  0  0  0  0  0
    5.2912    8.4000    0.0000 C   0  0  1  0  0  0  0  0  0  0  0  0
    5.2912    9.8000    0.0000 C   0  0  0  0  0  0  0  0  0  0  0  0
    4.0788   10.5000    0.0000 C   0  0  0  0  0  0  0  0  0  0  0  0
    2.8664    9.8000    0.0000 C   0  0  0  0  0  0  0  0  0  0  0  0
    2.8664    8.4000    0.0000 C   0  0  0  0  0  0  0  0  0  0  0  0
    6.5037    7.7000    0.0000 C   0  0  0  0  0  0  0  0  0  0  0  0
   10.6534    7.5124    0.0000 O   0  0  0  0  0  0  0  0  0  0  0  0
    8.0887    9.2501    0.0000 C   0  0  2  0  0  0  0  0  0  0  0  0
    7.8560    8.0623    0.0000 O   0  0  0  0  0  0  0  0  0  0  0  0
    6.3209    6.3120    0.0000 O   0  0  0  0  0  0  0  0  0  0  0  0
    5.2912    7.0000    0.0000 H   0  0  0  0  0  0  0  0  0  0  0  0
    7.0655   10.2057    0.0000 C   0  0  1  0  0  0  0  0  0  0  0  0
    7.0655   11.6057    0.0000 C   0  0  0  0  0  0  0  0  0  0  0  0
    5.8531   12.3057    0.0000 C   0  0  2  0  0  0  0  0  0  0  0  0
    5.8531   13.7057    0.0000 C   0  0  0  0  0  0  0  0  0  0  0  0
    4.6406   14.4057    0.0000 C   0  0  0  0  0  0  0  0  0  0  0  0
    3.4282   13.7057    0.0000 C   0  0  1  0  0  0  0  0  0  0  0  0
    3.4282   12.3057    0.0000 C   0  0  1  0  0  0  0  0  0  0  0  0
    4.6406   11.6057    0.0000 C   0  0  0  0  0  0  0  0  0  0  0  0
    2.2157   11.6057    0.0000 O   0  0  0  0  0  0  0  0  0  0  0  0
    1.0033   12.3057    0.0000 C   0  0  0  0  0  0  0  0  0  0  0  0
    2.2157   14.4057    0.0000 N   0  0  0  0  0  0  0  0  0  0  0  0
    2.0694   15.7980    0.0000 N   0  0  0  0  0  0  0  0  0  0  0  0
    0.7000   16.0891    0.0000 N   0  0  0  0  0  0  0  0  0  0  0  0
    0.0000   14.8766    0.0000 N   0  0  0  0  0  0  0  0  0  0  0  0
    0.9368   13.8362    0.0000 C   0  0  0  0  0  0  0  0  0  0  0  0
    8.0554   11.1956    0.0000 C   0  0  0  0  0  0  0  0  0  0  0  0
  1  2  1  0  0  0  0
  2  3  1  0  0  0  0
  3  4  1  0  0  0  0
  4  5  1  6  0  0  0
  5  6  1  0  0  0  0
  6  1  1  0  0  0  0
  4  7  1  0  0  0  0
  7  8  1  0  0  0  0
  8  9  1  0  0  0  0
  9 10  2  0  0  0  0
 10 11  1  0  0  0  0
 11 12  2  0  0  0  0
 12 13  1  0  0  0  0
 13 14  2  0  0  0  0
 14 15  1  0  0  0  0
  1 16  1  1  0  0  0
  6 17  1  0  0  0  0
  6 18  1  1  0  0  0
  8 19  1  6  0  0  0
  9 21  1  0  0  0  0
 15 22  1  0  0  0  0
 15 23  1  6  0  0  0
 22 24  1  0  0  0  0
 24 25  1  0  0  0  0
 24 26  1  1  0  0  0
 25 27  1  0  0  0  0
 25 28  2  0  0  0  0
 27 29  1  6  0  0  0
 27 31  1  0  0  0  0
 31 32  1  1  0  0  0
 31 33  1  0  0  0  0
 33 34  1  0  0  0  0
 33 35  2  0  0  0  0
 35 36  1  0  0  0  0
 36 37  1  0  0  0  0
 36 38  1  6  0  0  0
 37 39  1  0  0  0  0
 17 40  2  0  0  0  0
 17 41  1  0  0  0  0
 41 42  2  0  0  0  0
 41 43  1  0  0  0  0
 43 44  1  0  0  0  0
 44 45  1  0  0  0  0
 45 46  1  0  0  0  0
 46 47  1  0  0  0  0
 47 48  1  0  0  0  0
 48 43  1  0  0  0  0
 44 49  1  0  0  0  0
 37 50  2  0  0  0  0
 39 51  1  0  0  0  0
 49 52  1  0  0  0  0
 51 52  1  6  0  0  0
 49 53  2  0  0  0  0
 44 54  1  6  0  0  0
 51 55  1  0  0  0  0
 55 56  1  0  0  0  0
 57 56  1  1  0  0  0
 57 58  1  0  0  0  0
 58 59  1  0  0  0  0
 59 60  1  0  0  0  0
 60 61  1  0  0  0  0
 61 62  1  0  0  0  0
 62 57  1  0  0  0  0
 61 63  1  1  0  0  0
 60 65  1  1  0  0  0
 65 66  1  0  0  0  0
 66 67  2  0  0  0  0
 67 68  1  0  0  0  0
 68 69  2  0  0  0  0
 69 65  1  0  0  0  0
 55 70  1  6  0  0  0
 19 20  1  0  0  0  0
 29 30  1  0  0  0  0
 63 64  1  0  0  0  0
M  END
>  <Mol_ID> (442)
2764

>  <Formula> (442)
C52H79N5O12

>  <MolWeight> (442)
966.20996

>  <Cat> (442)
S7091

>  <Name> (442)
Zotarolimus (ABT-578)

>  <Synonyms> (442)
N/A

>  <Target> (442)
mTOR

>  <Form> (442)
Free Base

>  <CAS> (442)
221877-54-9

>  <URL> (442)
http://www.selleckchem.com/products/zotarolimus-abt-578.html

$$$$
Go6976.cdx
csChFnd80/05071909292D

 29 34  0  0  0  0  0  0  0  0999 V2000
    5.8907    8.4460    0.0000 C   0  0  0  0  0  0  0  0  0  0  0  0
    4.4924    8.3774    0.0000 C   0  0  0  0  0  0  0  0  0  0  0  0
    3.8526    7.1321    0.0000 C   0  0  0  0  0  0  0  0  0  0  0  0
    4.6111    5.9555    0.0000 C   0  0  0  0  0  0  0  0  0  0  0  0
    6.0094    6.0240    0.0000 C   0  0  0  0  0  0  0  0  0  0  0  0
    6.6492    7.2693    0.0000 C   0  0  0  0  0  0  0  0  0  0  0  0
    6.9961    5.0308    0.0000 N   0  0  0  0  0  0  0  0  0  0  0  0
    8.2456    5.6622    0.0000 C   0  0  0  0  0  0  0  0  0  0  0  0
    8.0312    7.0456    0.0000 C   0  0  0  0  0  0  0  0  0  0  0  0
    2.4991    6.7743    0.0000 C   0  0  0  0  0  0  0  0  0  0  0  0
    2.4211    5.3765    0.0000 C   0  0  0  0  0  0  0  0  0  0  0  0
    3.7264    4.8704    0.0000 N   0  0  0  0  0  0  0  0  0  0  0  0
    6.2576    9.7971    0.0000 C   0  0  0  0  0  0  0  0  0  0  0  0
    5.0860   10.5635    0.0000 N   0  0  0  0  0  0  0  0  0  0  0  0
    3.9950    9.6861    0.0000 C   0  0  0  0  0  0  0  0  0  0  0  0
    9.5509    5.1560    0.0000 C   0  0  0  0  0  0  0  0  0  0  0  0
   10.6419    6.0334    0.0000 C   0  0  0  0  0  0  0  0  0  0  0  0
   10.4275    7.4169    0.0000 C   0  0  0  0  0  0  0  0  0  0  0  0
    9.1222    7.9230    0.0000 C   0  0  0  0  0  0  0  0  0  0  0  0
    1.3275    7.5408    0.0000 C   0  0  0  0  0  0  0  0  0  0  0  0
    0.0780    6.9094    0.0000 C   0  0  0  0  0  0  0  0  0  0  0  0
    0.0000    5.5116    0.0000 C   0  0  0  0  0  0  0  0  0  0  0  0
    1.1716    4.7451    0.0000 C   0  0  0  0  0  0  0  0  0  0  0  0
    4.0842    3.5169    0.0000 C   0  0  0  0  0  0  0  0  0  0  0  0
    2.6440   10.0530    0.0000 O   0  0  0  0  0  0  0  0  0  0  0  0
    6.7724    3.6487    0.0000 C   0  0  0  0  0  0  0  0  0  0  0  0
    7.8574    2.7640    0.0000 C   0  0  0  0  0  0  0  0  0  0  0  0
    7.6338    1.3820    0.0000 C   0  0  0  0  0  0  0  0  0  0  0  0
    7.4101    0.0000    0.0000 N   0  0  0  0  0  0  0  0  0  0  0  0
  1  2  2  0  0  0  0
  2  3  1  0  0  0  0
  3  4  2  0  0  0  0
  4  5  1  0  0  0  0
  5  6  2  0  0  0  0
  6  1  1  0  0  0  0
  5  7  1  0  0  0  0
  7  8  1  0  0  0  0
  8  9  2  0  0  0  0
  9  6  1  0  0  0  0
  3 10  1  0  0  0  0
 10 11  2  0  0  0  0
 11 12  1  0  0  0  0
 12  4  1  0  0  0  0
  1 13  1  0  0  0  0
 13 14  1  0  0  0  0
 14 15  1  0  0  0  0
 15  2  1  0  0  0  0
  8 16  1  0  0  0  0
 16 17  2  0  0  0  0
 17 18  1  0  0  0  0
 18 19  2  0  0  0  0
 19  9  1  0  0  0  0
 10 20  1  0  0  0  0
 20 21  2  0  0  0  0
 21 22  1  0  0  0  0
 22 23  2  0  0  0  0
 23 11  1  0  0  0  0
 12 24  1  0  0  0  0
 15 25  2  0  0  0  0
  7 26  1  0  0  0  0
 26 27  1  0  0  0  0
 27 28  1  0  0  0  0
 28 29  3  0  0  0  0
M  END
>  <Mol_ID> (443)
2766

>  <Formula> (443)
C24H18N4O

>  <MolWeight> (443)
378.42592

>  <Cat> (443)
S7119

>  <Name> (443)
Go6976

>  <Synonyms> (443)
N/A

>  <Target> (443)
PKC

>  <Form> (443)
Free Base

>  <CAS> (443)
136194-77-9

>  <URL> (443)
http://www.selleckchem.com/products/go6976.html

$$$$
WH-4-023.cdx
csChFnd80/05071909292D

 42 46  0  0  0  0  0  0  0  0999 V2000
    3.6373    4.2000    0.0000 C   0  0  0  0  0  0  0  0  0  0  0  0
    3.6373    2.8000    0.0000 C   0  0  0  0  0  0  0  0  0  0  0  0
    4.8497    2.1000    0.0000 C   0  0  0  0  0  0  0  0  0  0  0  0
    6.0622    2.8000    0.0000 C   0  0  0  0  0  0  0  0  0  0  0  0
    6.0622    4.2000    0.0000 C   0  0  0  0  0  0  0  0  0  0  0  0
    4.8497    4.9000    0.0000 C   0  0  0  0  0  0  0  0  0  0  0  0
    4.8497    0.7000    0.0000 O   0  0  0  0  0  0  0  0  0  0  0  0
    6.0622    0.0000    0.0000 C   0  0  0  0  0  0  0  0  0  0  0  0
    2.4249    4.9000    0.0000 O   0  0  0  0  0  0  0  0  0  0  0  0
    1.2124    4.2000    0.0000 C   0  0  0  0  0  0  0  0  0  0  0  0
    4.8497    6.3000    0.0000 N   0  0  0  0  0  0  0  0  0  0  0  0
    3.6373    7.0000    0.0000 C   0  0  0  0  0  0  0  0  0  0  0  0
    6.0622    7.0000    0.0000 C   0  0  0  0  0  0  0  0  0  0  0  0
    2.4249    6.3000    0.0000 O   0  0  0  0  0  0  0  0  0  0  0  0
    3.6373    8.4000    0.0000 O   0  0  0  0  0  0  0  0  0  0  0  0
    2.4249    9.1000    0.0000 C   0  0  0  0  0  0  0  0  0  0  0  0
    2.4249   10.5000    0.0000 C   0  0  0  0  0  0  0  0  0  0  0  0
    1.2124   11.2000    0.0000 C   0  0  0  0  0  0  0  0  0  0  0  0
    0.0000   10.5000    0.0000 C   0  0  0  0  0  0  0  0  0  0  0  0
    0.0000    9.1000    0.0000 C   0  0  0  0  0  0  0  0  0  0  0  0
    1.2124    8.4000    0.0000 C   0  0  0  0  0  0  0  0  0  0  0  0
    3.6373   11.2000    0.0000 C   0  0  0  0  0  0  0  0  0  0  0  0
    1.2124    7.0000    0.0000 C   0  0  0  0  0  0  0  0  0  0  0  0
    7.2746    6.3000    0.0000 C   0  0  0  0  0  0  0  0  0  0  0  0
    8.4871    7.0000    0.0000 C   0  0  0  0  0  0  0  0  0  0  0  0
    8.4871    8.4000    0.0000 N   0  0  0  0  0  0  0  0  0  0  0  0
    7.2746    9.1000    0.0000 C   0  0  0  0  0  0  0  0  0  0  0  0
    6.0622    8.4000    0.0000 N   0  0  0  0  0  0  0  0  0  0  0  0
    7.2746   10.5000    0.0000 N   0  0  0  0  0  0  0  0  0  0  0  0
    8.4871   11.2000    0.0000 C   0  0  0  0  0  0  0  0  0  0  0  0
    9.6995   10.5000    0.0000 C   0  0  0  0  0  0  0  0  0  0  0  0
   10.9119   11.2000    0.0000 C   0  0  0  0  0  0  0  0  0  0  0  0
   10.9119   12.6000    0.0000 C   0  0  0  0  0  0  0  0  0  0  0  0
    9.6995   13.3000    0.0000 C   0  0  0  0  0  0  0  0  0  0  0  0
    8.4871   12.6000    0.0000 C   0  0  0  0  0  0  0  0  0  0  0  0
   12.1244   13.3000    0.0000 N   0  0  0  0  0  0  0  0  0  0  0  0
   13.3368   12.6000    0.0000 C   0  0  0  0  0  0  0  0  0  0  0  0
   14.5492   13.3000    0.0000 C   0  0  0  0  0  0  0  0  0  0  0  0
   14.5492   14.7000    0.0000 N   0  0  0  0  0  0  0  0  0  0  0  0
   13.3368   15.4000    0.0000 C   0  0  0  0  0  0  0  0  0  0  0  0
   12.1244   14.7000    0.0000 C   0  0  0  0  0  0  0  0  0  0  0  0
   15.7617   15.4000    0.0000 C   0  0  0  0  0  0  0  0  0  0  0  0
  1  2  2  0  0  0  0
  2  3  1  0  0  0  0
  3  4  2  0  0  0  0
  4  5  1  0  0  0  0
  5  6  2  0  0  0  0
  6  1  1  0  0  0  0
  3  7  1  0  0  0  0
  7  8  1  0  0  0  0
  1  9  1  0  0  0  0
  9 10  1  0  0  0  0
  6 11  1  0  0  0  0
 11 12  1  0  0  0  0
 11 13  1  0  0  0  0
 12 14  2  0  0  0  0
 12 15  1  0  0  0  0
 15 16  1  0  0  0  0
 16 17  2  0  0  0  0
 17 18  1  0  0  0  0
 18 19  2  0  0  0  0
 19 20  1  0  0  0  0
 20 21  2  0  0  0  0
 21 16  1  0  0  0  0
 17 22  1  0  0  0  0
 21 23  1  0  0  0  0
 13 24  2  0  0  0  0
 24 25  1  0  0  0  0
 25 26  2  0  0  0  0
 26 27  1  0  0  0  0
 27 28  2  0  0  0  0
 28 13  1  0  0  0  0
 27 29  1  0  0  0  0
 29 30  1  0  0  0  0
 30 31  2  0  0  0  0
 31 32  1  0  0  0  0
 32 33  2  0  0  0  0
 33 34  1  0  0  0  0
 34 35  2  0  0  0  0
 35 30  1  0  0  0  0
 33 36  1  0  0  0  0
 36 37  1  0  0  0  0
 37 38  1  0  0  0  0
 38 39  1  0  0  0  0
 39 40  1  0  0  0  0
 40 41  1  0  0  0  0
 41 36  1  0  0  0  0
 39 42  1  0  0  0  0
M  END
>  <Mol_ID> (444)
2767

>  <Formula> (444)
C32H36N6O4

>  <MolWeight> (444)
568.66604

>  <Cat> (444)
S7565

>  <Name> (444)
WH-4-023

>  <Synonyms> (444)
KIN001-112

>  <Target> (444)
Src

>  <Form> (444)
Free Base

>  <CAS> (444)
837422-57-8

>  <URL> (444)
http://www.selleckchem.com/products/wh-4-023.html

$$$$
SF1670 (PTEN inhibitor).cdx
csChFnd80/05071909292D

 23 25  0  0  0  0  0  0  0  0999 V2000
    2.4249    3.5000    0.0000 C   0  0  0  0  0  0  0  0  0  0  0  0
    2.4249    2.1000    0.0000 C   0  0  0  0  0  0  0  0  0  0  0  0
    3.6373    1.4000    0.0000 C   0  0  0  0  0  0  0  0  0  0  0  0
    4.8497    2.1000    0.0000 C   0  0  0  0  0  0  0  0  0  0  0  0
    4.8497    3.5000    0.0000 C   0  0  0  0  0  0  0  0  0  0  0  0
    3.6373    4.2000    0.0000 C   0  0  0  0  0  0  0  0  0  0  0  0
    1.2124    4.2000    0.0000 C   0  0  0  0  0  0  0  0  0  0  0  0
    0.0000    3.5000    0.0000 C   0  0  0  0  0  0  0  0  0  0  0  0
    0.0000    2.1000    0.0000 C   0  0  0  0  0  0  0  0  0  0  0  0
    1.2124    1.4000    0.0000 C   0  0  0  0  0  0  0  0  0  0  0  0
    6.0622    4.2000    0.0000 C   0  0  0  0  0  0  0  0  0  0  0  0
    6.0622    5.6000    0.0000 C   0  0  0  0  0  0  0  0  0  0  0  0
    4.8497    6.3000    0.0000 C   0  0  0  0  0  0  0  0  0  0  0  0
    3.6373    5.6000    0.0000 C   0  0  0  0  0  0  0  0  0  0  0  0
    6.0622    1.4000    0.0000 O   0  0  0  0  0  0  0  0  0  0  0  0
    3.6373    0.0000    0.0000 O   0  0  0  0  0  0  0  0  0  0  0  0
    7.2746    6.3000    0.0000 N   0  0  0  0  0  0  0  0  0  0  0  0
    8.4870    5.6000    0.0000 C   0  0  0  0  0  0  0  0  0  0  0  0
    9.6995    6.3000    0.0000 C   0  0  0  0  0  0  0  0  0  0  0  0
    8.4870    4.2000    0.0000 O   0  0  0  0  0  0  0  0  0  0  0  0
   10.9119    5.6000    0.0000 C   0  0  0  0  0  0  0  0  0  0  0  0
    9.6995    7.7000    0.0000 C   0  0  0  0  0  0  0  0  0  0  0  0
   10.9119    7.0000    0.0000 C   0  0  0  0  0  0  0  0  0  0  0  0
  1  2  2  0  0  0  0
  2  3  1  0  0  0  0
  3  4  1  0  0  0  0
  4  5  1  0  0  0  0
  5  6  2  0  0  0  0
  6  1  1  0  0  0  0
  1  7  1  0  0  0  0
  7  8  2  0  0  0  0
  8  9  1  0  0  0  0
  9 10  2  0  0  0  0
 10  2  1  0  0  0  0
  5 11  1  0  0  0  0
 11 12  2  0  0  0  0
 12 13  1  0  0  0  0
 13 14  2  0  0  0  0
 14  6  1  0  0  0  0
  4 15  2  0  0  0  0
  3 16  2  0  0  0  0
 12 17  1  0  0  0  0
 17 18  1  0  0  0  0
 18 19  1  0  0  0  0
 18 20  2  0  0  0  0
 19 21  1  0  0  0  0
 19 22  1  0  0  0  0
 19 23  1  0  0  0  0
M  END
>  <Mol_ID> (445)
2770

>  <Formula> (445)
C19H17NO3

>  <MolWeight> (445)
307.34318

>  <Cat> (445)
S7310

>  <Name> (445)
SF1670 (PTEN inhibitor)

>  <Synonyms> (445)
N/A

>  <Target> (445)
PTEN

>  <Form> (445)
Free Base

>  <CAS> (445)
345630-40-2

>  <URL> (445)
http://www.selleckchem.com/products/sf1670.html

$$$$
IM-12.cdx
csChFnd80/05071909292D

 28 31  0  0  0  0  0  0  0  0999 V2000
    4.2846    4.6880    0.0000 C   0  0  0  0  0  0  0  0  0  0  0  0
    4.8171    3.3932    0.0000 C   0  0  0  0  0  0  0  0  0  0  0  0
    6.2131    3.4995    0.0000 C   0  0  0  0  0  0  0  0  0  0  0  0
    6.5433    4.8600    0.0000 C   0  0  0  0  0  0  0  0  0  0  0  0
    5.3515    5.5945    0.0000 N   0  0  0  0  0  0  0  0  0  0  0  0
    4.0826    2.2013    0.0000 C   0  0  0  0  0  0  0  0  0  0  0  0
    2.6867    2.0950    0.0000 C   0  0  0  0  0  0  0  0  0  0  0  0
    2.3564    0.7345    0.0000 C   0  0  0  0  0  0  0  0  0  0  0  0
    3.5483    0.0000    0.0000 N   0  0  0  0  0  0  0  0  0  0  0  0
    4.6151    0.9066    0.0000 C   0  0  0  0  0  0  0  0  0  0  0  0
    7.1196    2.4327    0.0000 N   0  0  0  0  0  0  0  0  0  0  0  0
    8.4968    2.6843    0.0000 C   0  0  0  0  0  0  0  0  0  0  0  0
    9.4034    1.6175    0.0000 C   0  0  0  0  0  0  0  0  0  0  0  0
   10.7806    1.8692    0.0000 C   0  0  0  0  0  0  0  0  0  0  0  0
    1.6736    3.0612    0.0000 C   0  0  0  0  0  0  0  0  0  0  0  0
    0.3302    2.6670    0.0000 C   0  0  0  0  0  0  0  0  0  0  0  0
    0.0000    1.3065    0.0000 C   0  0  0  0  0  0  0  0  0  0  0  0
    1.0131    0.3402    0.0000 C   0  0  0  0  0  0  0  0  0  0  0  0
   11.6871    0.8023    0.0000 C   0  0  0  0  0  0  0  0  0  0  0  0
   13.0643    1.0540    0.0000 C   0  0  0  0  0  0  0  0  0  0  0  0
   13.5350    2.3725    0.0000 C   0  0  0  0  0  0  0  0  0  0  0  0
   12.6284    3.4394    0.0000 C   0  0  0  0  0  0  0  0  0  0  0  0
   11.2512    3.1877    0.0000 C   0  0  0  0  0  0  0  0  0  0  0  0
    2.9241    5.0182    0.0000 O   0  0  0  0  0  0  0  0  0  0  0  0
    7.8381    5.3925    0.0000 O   0  0  0  0  0  0  0  0  0  0  0  0
    5.2451    6.9905    0.0000 C   0  0  0  0  0  0  0  0  0  0  0  0
   14.9122    2.6242    0.0000 F   0  0  0  0  0  0  0  0  0  0  0  0
    5.9756    0.5763    0.0000 C   0  0  0  0  0  0  0  0  0  0  0  0
  1  2  1  0  0  0  0
  2  3  2  0  0  0  0
  3  4  1  0  0  0  0
  4  5  1  0  0  0  0
  5  1  1  0  0  0  0
  2  6  1  0  0  0  0
  6  7  1  0  0  0  0
  7  8  2  0  0  0  0
  8  9  1  0  0  0  0
  9 10  1  0  0  0  0
 10  6  2  0  0  0  0
  3 11  1  0  0  0  0
 11 12  1  0  0  0  0
 12 13  1  0  0  0  0
 13 14  1  0  0  0  0
  7 15  1  0  0  0  0
 15 16  2  0  0  0  0
 16 17  1  0  0  0  0
 17 18  2  0  0  0  0
 18  8  1  0  0  0  0
 14 19  2  0  0  0  0
 19 20  1  0  0  0  0
 20 21  2  0  0  0  0
 21 22  1  0  0  0  0
 22 23  2  0  0  0  0
 23 14  1  0  0  0  0
  1 24  2  0  0  0  0
  4 25  2  0  0  0  0
  5 26  1  0  0  0  0
 21 27  1  0  0  0  0
 10 28  1  0  0  0  0
M  END
>  <Mol_ID> (446)
2771

>  <Formula> (446)
C22H20FN3O2

>  <MolWeight> (446)
377.4115032

>  <Cat> (446)
S7566

>  <Name> (446)
IM-12

>  <Synonyms> (446)
N/A

>  <Target> (446)
GSK-3

>  <Form> (446)
Free Base

>  <CAS> (446)
1129669-05-1

>  <URL> (446)
http://www.selleckchem.com/products/im-12.html

$$$$
NMS-P937.cdx
csChFnd80/05071909292D

 38 42  0  0  0  0  0  0  0  0999 V2000
    7.1355   10.4628    0.0000 C   0  0  0  0  0  0  0  0  0  0  0  0
    8.3479   11.1628    0.0000 C   0  0  0  0  0  0  0  0  0  0  0  0
    9.5604   10.4628    0.0000 C   0  0  0  0  0  0  0  0  0  0  0  0
    9.5604    9.0628    0.0000 C   0  0  0  0  0  0  0  0  0  0  0  0
    8.3479    8.3628    0.0000 C   0  0  0  0  0  0  0  0  0  0  0  0
    7.1355    9.0628    0.0000 C   0  0  0  0  0  0  0  0  0  0  0  0
   10.7728    8.3628    0.0000 N   0  0  0  0  0  0  0  0  0  0  0  0
    5.9230   11.1628    0.0000 O   0  0  0  0  0  0  0  0  0  0  0  0
    5.9230   12.5628    0.0000 C   0  0  0  0  0  0  0  0  0  0  0  0
    5.9230   13.9628    0.0000 F   0  0  0  0  0  0  0  0  0  0  0  0
    7.3230   12.5628    0.0000 F   0  0  0  0  0  0  0  0  0  0  0  0
    4.5230   12.5628    0.0000 F   0  0  0  0  0  0  0  0  0  0  0  0
    5.9230    8.3628    0.0000 N   0  0  0  0  0  0  0  0  0  0  0  0
    5.9230    6.9628    0.0000 C   0  0  0  0  0  0  0  0  0  0  0  0
    4.7115    6.2608    0.0000 N   0  0  0  0  0  0  0  0  0  0  0  0
    4.7170    4.8601    0.0000 C   0  0  0  0  0  0  0  0  0  0  0  0
    5.9310    4.1628    0.0000 C   0  0  0  0  0  0  0  0  0  0  0  0
    7.1418    4.8656    0.0000 C   0  0  0  0  0  0  0  0  0  0  0  0
    7.1379    6.2643    0.0000 N   0  0  0  0  0  0  0  0  0  0  0  0
   11.9850    9.0632    0.0000 C   0  0  0  0  0  0  0  0  0  0  0  0
   13.1974    8.3633    0.0000 C   0  0  0  0  0  0  0  0  0  0  0  0
   13.1978    6.9622    0.0000 N   0  0  0  0  0  0  0  0  0  0  0  0
   11.9850    6.2633    0.0000 C   0  0  0  0  0  0  0  0  0  0  0  0
   10.7725    6.9633    0.0000 C   0  0  0  0  0  0  0  0  0  0  0  0
   14.4103    6.2622    0.0000 C   0  0  0  0  0  0  0  0  0  0  0  0
    3.5061    4.1573    0.0000 C   0  0  0  0  0  0  0  0  0  0  0  0
    3.5093    2.7573    0.0000 C   0  0  0  0  0  0  0  0  0  0  0  0
    4.7234    2.0601    0.0000 C   0  0  0  0  0  0  0  0  0  0  0  0
    5.9342    2.7628    0.0000 C   0  0  0  0  0  0  0  0  0  0  0  0
    2.1716    4.5875    0.0000 N   0  0  0  0  0  0  0  0  0  0  0  0
    1.3511    3.4513    0.0000 N   0  0  0  0  0  0  0  0  0  0  0  0
    2.1788    2.3217    0.0000 C   0  0  0  0  0  0  0  0  0  0  0  0
    1.7516    0.9899    0.0000 C   0  0  0  0  0  0  0  0  0  0  0  0
    0.3990    0.6234    0.0000 N   0  0  0  0  0  0  0  0  0  0  0  0
    2.7415    0.0000    0.0000 O   0  0  0  0  0  0  0  0  0  0  0  0
    1.7356    5.9179    0.0000 C   0  0  0  0  0  0  0  0  0  0  0  0
    0.3654    6.2054    0.0000 C   0  0  0  0  0  0  0  0  0  0  0  0
    0.0000    7.5569    0.0000 O   0  0  0  0  0  0  0  0  0  0  0  0
  1  2  2  0  0  0  0
  2  3  1  0  0  0  0
  3  4  2  0  0  0  0
  4  5  1  0  0  0  0
  5  6  2  0  0  0  0
  6  1  1  0  0  0  0
  4  7  1  0  0  0  0
  1  8  1  0  0  0  0
  8  9  1  0  0  0  0
  9 10  1  0  0  0  0
  9 11  1  0  0  0  0
  9 12  1  0  0  0  0
  6 13  1  0  0  0  0
 13 14  1  0  0  0  0
 14 15  2  0  0  0  0
 15 16  1  0  0  0  0
 16 17  2  0  0  0  0
 17 18  1  0  0  0  0
 18 19  2  0  0  0  0
 19 14  1  0  0  0  0
  7 20  1  0  0  0  0
 20 21  1  0  0  0  0
 21 22  1  0  0  0  0
 22 23  1  0  0  0  0
 23 24  1  0  0  0  0
 24  7  1  0  0  0  0
 22 25  1  0  0  0  0
 16 26  1  0  0  0  0
 26 27  2  0  0  0  0
 27 28  1  0  0  0  0
 28 29  1  0  0  0  0
 29 17  1  0  0  0  0
 26 30  1  0  0  0  0
 30 31  1  0  0  0  0
 31 32  2  0  0  0  0
 32 27  1  0  0  0  0
 32 33  1  0  0  0  0
 33 34  1  0  0  0  0
 33 35  2  0  0  0  0
 30 36  1  0  0  0  0
 36 37  1  0  0  0  0
 37 38  1  0  0  0  0
M  END
>  <Mol_ID> (447)
2782

>  <Formula> (447)
C24H27F3N8O3

>  <MolWeight> (447)
532.5181896

>  <Cat> (447)
S7255

>  <Name> (447)
NMS-P937 (NMS1286937)

>  <Synonyms> (447)
N/A

>  <Target> (447)
PLK

>  <Form> (447)
Free Base

>  <CAS> (447)
1034616-18-6

>  <URL> (447)
http://www.selleckchem.com/products/nms-p937-nms1286937.html

$$$$
GNE-9605.cdx
csChFnd80/05071909292D

 30 33  0  0  0  0  0  0  0  0999 V2000
    6.5868   11.7866    0.0000 N   0  0  0  0  0  0  0  0  0  0  0  0
    6.5868   10.3866    0.0000 C   0  0  0  0  0  0  0  0  0  0  0  0
    7.7992    9.6866    0.0000 N   0  0  0  0  0  0  0  0  0  0  0  0
    9.0117   10.3866    0.0000 C   0  0  0  0  0  0  0  0  0  0  0  0
    9.0117   11.7866    0.0000 C   0  0  0  0  0  0  0  0  0  0  0  0
    7.7992   12.4866    0.0000 C   0  0  0  0  0  0  0  0  0  0  0  0
   10.2241   12.4866    0.0000 C   0  0  0  0  0  0  0  0  0  0  0  0
   11.4365   11.7866    0.0000 F   0  0  0  0  0  0  0  0  0  0  0  0
   10.2241   13.8866    0.0000 F   0  0  0  0  0  0  0  0  0  0  0  0
   11.4365   13.1866    0.0000 F   0  0  0  0  0  0  0  0  0  0  0  0
   10.2241    9.6866    0.0000 N   0  0  0  0  0  0  0  0  0  0  0  0
   11.4365   10.3866    0.0000 C   0  0  0  0  0  0  0  0  0  0  0  0
    5.3744    9.6866    0.0000 N   0  0  0  0  0  0  0  0  0  0  0  0
    5.3744    8.2866    0.0000 C   0  0  0  0  0  0  0  0  0  0  0  0
    4.2417    7.4637    0.0000 C   0  0  0  0  0  0  0  0  0  0  0  0
    4.6744    6.1323    0.0000 N   0  0  0  0  0  0  0  0  0  0  0  0
    6.0744    6.1323    0.0000 N   0  0  0  0  0  0  0  0  0  0  0  0
    6.5070    7.4637    0.0000 C   0  0  0  0  0  0  0  0  0  0  0  0
    2.9103    7.8964    0.0000 Cl  0  0  0  0  0  0  0  0  0  0  0  0
    3.8515    4.9996    0.0000 C   0  0  1  0  0  0  0  0  0  0  0  0
    2.4591    5.1460    0.0000 C   0  0  0  0  0  0  0  0  0  0  0  0
    1.6362    4.0134    0.0000 C   0  0  0  0  0  0  0  0  0  0  0  0
    2.2057    2.7344    0.0000 N   0  0  0  0  0  0  0  0  0  0  0  0
    3.5980    2.5881    0.0000 C   0  0  0  0  0  0  0  0  0  0  0  0
    4.4209    3.7207    0.0000 C   0  0  2  0  0  0  0  0  0  0  0  0
    5.8132    3.5743    0.0000 F   0  0  0  0  0  0  0  0  0  0  0  0
    1.3828    1.6018    0.0000 C   0  0  0  0  0  0  0  0  0  0  0  0
    0.0000    1.3828    0.0000 C   0  0  0  0  0  0  0  0  0  0  0  0
    0.2190    0.0000    0.0000 O   0  0  0  0  0  0  0  0  0  0  0  0
    1.6018    0.2190    0.0000 C   0  0  0  0  0  0  0  0  0  0  0  0
  1  2  2  0  0  0  0
  2  3  1  0  0  0  0
  3  4  2  0  0  0  0
  4  5  1  0  0  0  0
  5  6  2  0  0  0  0
  6  1  1  0  0  0  0
  5  7  1  0  0  0  0
  7  8  1  0  0  0  0
  7  9  1  0  0  0  0
  7 10  1  0  0  0  0
  4 11  1  0  0  0  0
 11 12  1  0  0  0  0
  2 13  1  0  0  0  0
 13 14  1  0  0  0  0
 14 15  2  0  0  0  0
 15 16  1  0  0  0  0
 16 17  1  0  0  0  0
 17 18  2  0  0  0  0
 18 14  1  0  0  0  0
 15 19  1  0  0  0  0
 20 16  1  6  0  0  0
 20 21  1  0  0  0  0
 21 22  1  0  0  0  0
 22 23  1  0  0  0  0
 23 24  1  0  0  0  0
 24 25  1  0  0  0  0
 25 20  1  0  0  0  0
 25 26  1  1  0  0  0
 23 27  1  0  0  0  0
 27 28  1  0  0  0  0
 28 29  1  0  0  0  0
 29 30  1  0  0  0  0
 30 27  1  0  0  0  0
M  END
>  <Mol_ID> (448)
2788

>  <Formula> (448)
C17H20ClF4N7O

>  <MolWeight> (448)
449.8336128

>  <Cat> (448)
S7368

>  <Name> (448)
GNE-9605

>  <Synonyms> (448)
N/A

>  <Target> (448)
LRRK2

>  <Form> (448)
Free Base

>  <CAS> (448)
1536200-31-3

>  <URL> (448)
http://www.selleckchem.com/products/gne-9605.html

$$$$
filgotinib.cdx
csChFnd80/05071909292D

 30 34  0  0  0  0  0  0  0  0999 V2000
    0.0000    2.1000    0.0000 C   0  0  0  0  0  0  0  0  0  0  0  0
    0.0000    0.7000    0.0000 C   0  0  0  0  0  0  0  0  0  0  0  0
    1.2124    0.0000    0.0000 C   0  0  0  0  0  0  0  0  0  0  0  0
    2.4249    0.7000    0.0000 C   0  0  0  0  0  0  0  0  0  0  0  0
    2.4249    2.1000    0.0000 N   0  0  0  0  0  0  0  0  0  0  0  0
    1.2124    2.8000    0.0000 C   0  0  0  0  0  0  0  0  0  0  0  0
    1.2124    4.2000    0.0000 C   0  0  0  0  0  0  0  0  0  0  0  0
    2.4249    4.9000    0.0000 C   0  0  0  0  0  0  0  0  0  0  0  0
    2.4249    6.3000    0.0000 C   0  0  0  0  0  0  0  0  0  0  0  0
    1.2124    7.0000    0.0000 C   0  0  0  0  0  0  0  0  0  0  0  0
    0.0000    6.3000    0.0000 C   0  0  0  0  0  0  0  0  0  0  0  0
    0.0000    4.9000    0.0000 C   0  0  0  0  0  0  0  0  0  0  0  0
    3.7564    0.2674    0.0000 N   0  0  0  0  0  0  0  0  0  0  0  0
    4.5792    1.4000    0.0000 C   0  0  0  0  0  0  0  0  0  0  0  0
    3.7564    2.5326    0.0000 N   0  0  0  0  0  0  0  0  0  0  0  0
    5.9792    1.4000    0.0000 N   0  0  0  0  0  0  0  0  0  0  0  0
    6.6792    2.6124    0.0000 C   0  0  0  0  0  0  0  0  0  0  0  0
    8.0792    2.6124    0.0000 C   0  0  0  0  0  0  0  0  0  0  0  0
    5.9792    3.8249    0.0000 O   0  0  0  0  0  0  0  0  0  0  0  0
    9.2917    1.9124    0.0000 C   0  0  0  0  0  0  0  0  0  0  0  0
    9.2917    3.3124    0.0000 C   0  0  0  0  0  0  0  0  0  0  0  0
    1.2124    8.4000    0.0000 C   0  0  0  0  0  0  0  0  0  0  0  0
    2.4249    9.1000    0.0000 N   0  0  0  0  0  0  0  0  0  0  0  0
    3.6373    8.4000    0.0000 C   0  0  0  0  0  0  0  0  0  0  0  0
    4.8497    9.1000    0.0000 C   0  0  0  0  0  0  0  0  0  0  0  0
    4.8497   10.5000    0.0000 S   0  0  0  0  0  0  0  0  0  0  0  0
    3.6373   11.2000    0.0000 C   0  0  0  0  0  0  0  0  0  0  0  0
    2.4249   10.5000    0.0000 C   0  0  0  0  0  0  0  0  0  0  0  0
    6.0622   11.2000    0.0000 O   0  0  0  0  0  0  0  0  0  0  0  0
    6.0622    9.8000    0.0000 O   0  0  0  0  0  0  0  0  0  0  0  0
  1  2  1  0  0  0  0
  2  3  2  0  0  0  0
  3  4  1  0  0  0  0
  4  5  1  0  0  0  0
  5  6  1  0  0  0  0
  6  1  2  0  0  0  0
  6  7  1  0  0  0  0
  7  8  2  0  0  0  0
  8  9  1  0  0  0  0
  9 10  2  0  0  0  0
 10 11  1  0  0  0  0
 11 12  2  0  0  0  0
 12  7  1  0  0  0  0
  4 13  2  0  0  0  0
 13 14  1  0  0  0  0
 14 15  2  0  0  0  0
 15  5  1  0  0  0  0
 14 16  1  0  0  0  0
 16 17  1  0  0  0  0
 17 18  1  0  0  0  0
 17 19  2  0  0  0  0
 18 20  1  0  0  0  0
 20 21  1  0  0  0  0
 21 18  1  0  0  0  0
 10 22  1  0  0  0  0
 22 23  1  0  0  0  0
 23 24  1  0  0  0  0
 24 25  1  0  0  0  0
 25 26  1  0  0  0  0
 26 27  1  0  0  0  0
 27 28  1  0  0  0  0
 28 23  1  0  0  0  0
 26 29  2  0  0  0  0
 26 30  2  0  0  0  0
M  END
>  <Mol_ID> (449)
2789

>  <Formula> (449)
C21H23N5O3S

>  <MolWeight> (449)
425.50402

>  <Cat> (449)
S7605

>  <Name> (449)
FilgotinibGLPG0643)

>  <Synonyms> (449)
N/A

>  <Target> (449)
JAK

>  <Form> (449)
Free Base

>  <CAS> (449)
1206161-97-8

>  <URL> (449)
http://www.selleckchem.com/products/filgotinib.html

$$$$
Anacardic Acid.cdx
csChFnd80/05071909292D

 25 25  0  0  0  0  0  0  0  0999 V2000
    0.0000    2.1000    0.0000 C   0  0  0  0  0  0  0  0  0  0  0  0
    0.0000    0.7000    0.0000 C   0  0  0  0  0  0  0  0  0  0  0  0
    1.2124    0.0000    0.0000 C   0  0  0  0  0  0  0  0  0  0  0  0
    2.4249    0.7000    0.0000 C   0  0  0  0  0  0  0  0  0  0  0  0
    2.4249    2.1000    0.0000 C   0  0  0  0  0  0  0  0  0  0  0  0
    1.2124    2.8000    0.0000 C   0  0  0  0  0  0  0  0  0  0  0  0
    1.2124    4.2000    0.0000 O   0  0  0  0  0  0  0  0  0  0  0  0
    3.6373    2.8000    0.0000 C   0  0  0  0  0  0  0  0  0  0  0  0
    4.8497    2.1000    0.0000 O   0  0  0  0  0  0  0  0  0  0  0  0
    3.6373    4.2000    0.0000 O   0  0  0  0  0  0  0  0  0  0  0  0
    3.6373    0.0000    0.0000 C   0  0  0  0  0  0  0  0  0  0  0  0
    4.8497    0.7000    0.0000 C   0  0  0  0  0  0  0  0  0  0  0  0
    6.0622    0.0000    0.0000 C   0  0  0  0  0  0  0  0  0  0  0  0
    7.2746    0.7000    0.0000 C   0  0  0  0  0  0  0  0  0  0  0  0
    8.4870    0.0000    0.0000 C   0  0  0  0  0  0  0  0  0  0  0  0
    9.6995    0.7000    0.0000 C   0  0  0  0  0  0  0  0  0  0  0  0
   10.9119    0.0000    0.0000 C   0  0  0  0  0  0  0  0  0  0  0  0
   12.1244    0.7000    0.0000 C   0  0  0  0  0  0  0  0  0  0  0  0
   13.3368    0.0000    0.0000 C   0  0  0  0  0  0  0  0  0  0  0  0
   14.5492    0.7000    0.0000 C   0  0  0  0  0  0  0  0  0  0  0  0
   15.7617    0.0000    0.0000 C   0  0  0  0  0  0  0  0  0  0  0  0
   16.9741    0.7000    0.0000 C   0  0  0  0  0  0  0  0  0  0  0  0
   18.1865    0.0000    0.0000 C   0  0  0  0  0  0  0  0  0  0  0  0
   19.3990    0.7000    0.0000 C   0  0  0  0  0  0  0  0  0  0  0  0
   20.6114    0.0000    0.0000 C   0  0  0  0  0  0  0  0  0  0  0  0
  1  2  2  0  0  0  0
  2  3  1  0  0  0  0
  3  4  2  0  0  0  0
  4  5  1  0  0  0  0
  5  6  2  0  0  0  0
  6  1  1  0  0  0  0
  6  7  1  0  0  0  0
  5  8  1  0  0  0  0
  8  9  1  0  0  0  0
  8 10  2  0  0  0  0
  4 11  1  0  0  0  0
 11 12  1  0  0  0  0
 12 13  1  0  0  0  0
 13 14  1  0  0  0  0
 14 15  1  0  0  0  0
 15 16  1  0  0  0  0
 16 17  1  0  0  0  0
 17 18  1  0  0  0  0
 18 19  1  0  0  0  0
 19 20  1  0  0  0  0
 20 21  1  0  0  0  0
 21 22  1  0  0  0  0
 22 23  1  0  0  0  0
 23 24  1  0  0  0  0
 24 25  1  0  0  0  0
M  END
>  <Mol_ID> (450)
2798

>  <Formula> (450)
C22H36O3

>  <MolWeight> (450)
348.51944

>  <Cat> (450)
S7582

>  <Name> (450)
Anacardic Acid

>  <Synonyms> (450)
6-pentadecylsalicylic Acid

>  <Target> (450)
Histone Acetyltransferase

>  <Form> (450)
Free Base

>  <CAS> (450)
16611-84-0

>  <URL> (450)
http://www.selleckchem.com/products/anacardic-acid.html

$$$$
GNF5837.cdx
csChFnd80/05071909292D

 39 43  0  0  0  0  0  0  0  0999 V2000
    9.6702    4.7371    0.0000 C   0  0  0  0  0  0  0  0  0  0  0  0
    9.6702    3.3371    0.0000 C   0  0  0  0  0  0  0  0  0  0  0  0
   10.8826    2.6371    0.0000 C   0  0  0  0  0  0  0  0  0  0  0  0
   12.0951    3.3371    0.0000 C   0  0  0  0  0  0  0  0  0  0  0  0
   12.0951    4.7371    0.0000 C   0  0  0  0  0  0  0  0  0  0  0  0
   10.8826    5.4371    0.0000 C   0  0  0  0  0  0  0  0  0  0  0  0
    2.4165    4.7371    0.0000 C   0  0  0  0  0  0  0  0  0  0  0  0
    2.4165    3.3371    0.0000 C   0  0  0  0  0  0  0  0  0  0  0  0
    3.6289    2.6371    0.0000 C   0  0  0  0  0  0  0  0  0  0  0  0
    4.8413    3.3371    0.0000 C   0  0  0  0  0  0  0  0  0  0  0  0
    4.8413    4.7371    0.0000 C   0  0  0  0  0  0  0  0  0  0  0  0
    3.6289    5.4371    0.0000 C   0  0  0  0  0  0  0  0  0  0  0  0
   14.4652    4.7341    0.0000 C   0  0  0  0  0  0  0  0  0  0  0  0
   14.4652    3.3341    0.0000 C   0  0  0  0  0  0  0  0  0  0  0  0
   15.6776    2.6341    0.0000 C   0  0  0  0  0  0  0  0  0  0  0  0
   16.8901    3.3341    0.0000 C   0  0  0  0  0  0  0  0  0  0  0  0
   16.8901    4.7341    0.0000 C   0  0  0  0  0  0  0  0  0  0  0  0
   15.6776    5.4341    0.0000 C   0  0  0  0  0  0  0  0  0  0  0  0
   13.3075    5.4371    0.0000 N   0  0  0  0  0  0  0  0  0  0  0  0
   13.3075    2.6371    0.0000 C   0  0  0  0  0  0  0  0  0  0  0  0
   18.2216    2.9015    0.0000 C   0  0  0  0  0  0  0  0  0  0  0  0
   19.0445    4.0341    0.0000 C   0  0  0  0  0  0  0  0  0  0  0  0
   18.2216    5.1668    0.0000 N   0  0  0  0  0  0  0  0  0  0  0  0
   20.4445    4.0341    0.0000 O   0  0  0  0  0  0  0  0  0  0  0  0
   18.6542    1.5700    0.0000 C   0  0  0  0  0  0  0  0  0  0  0  0
   20.0236    1.2790    0.0000 C   0  0  0  0  0  0  0  0  0  0  0  0
    8.4578    5.4371    0.0000 N   0  0  0  0  0  0  0  0  0  0  0  0
    7.2453    4.7371    0.0000 C   0  0  0  0  0  0  0  0  0  0  0  0
    6.0329    5.4371    0.0000 N   0  0  0  0  0  0  0  0  0  0  0  0
    7.2453    3.3371    0.0000 O   0  0  0  0  0  0  0  0  0  0  0  0
    1.2082    5.4346    0.0000 C   0  0  0  0  0  0  0  0  0  0  0  0
    0.0000    4.7371    0.0000 F   0  0  0  0  0  0  0  0  0  0  0  0
    1.2082    6.8298    0.0000 F   0  0  0  0  0  0  0  0  0  0  0  0
    2.4165    6.1322    0.0000 F   0  0  0  0  0  0  0  0  0  0  0  0
    6.0495    2.6395    0.0000 F   0  0  0  0  0  0  0  0  0  0  0  0
   20.5930    0.0000    0.0000 N   0  0  0  0  0  0  0  0  0  0  0  0
   21.9853    0.1463    0.0000 C   0  0  0  0  0  0  0  0  0  0  0  0
   22.2764    1.5157    0.0000 C   0  0  0  0  0  0  0  0  0  0  0  0
   21.0640    2.2157    0.0000 C   0  0  0  0  0  0  0  0  0  0  0  0
  1  2  2  0  0  0  0
  2  3  1  0  0  0  0
  3  4  2  0  0  0  0
  4  5  1  0  0  0  0
  5  6  2  0  0  0  0
  6  1  1  0  0  0  0
  7  8  2  0  0  0  0
  8  9  1  0  0  0  0
  9 10  2  0  0  0  0
 10 11  1  0  0  0  0
 11 12  2  0  0  0  0
 12  7  1  0  0  0  0
 13 14  2  0  0  0  0
 14 15  1  0  0  0  0
 15 16  2  0  0  0  0
 16 17  1  0  0  0  0
 17 18  2  0  0  0  0
 18 13  1  0  0  0  0
  5 19  1  0  0  0  0
  4 20  1  0  0  0  0
 19 13  1  0  0  0  0
 16 21  1  0  0  0  0
 21 22  1  0  0  0  0
 22 23  1  0  0  0  0
 23 17  1  0  0  0  0
 22 24  2  0  0  0  0
 21 25  2  0  0  0  0
 25 26  1  0  0  0  0
  1 27  1  0  0  0  0
 27 28  1  0  0  0  0
 28 29  1  0  0  0  0
 28 30  2  0  0  0  0
 11 29  1  0  0  0  0
  7 31  1  0  0  0  0
 31 32  1  0  0  0  0
 31 33  1  0  0  0  0
 31 34  1  0  0  0  0
 10 35  1  0  0  0  0
 26 36  1  0  0  0  0
 36 37  1  0  0  0  0
 37 38  2  0  0  0  0
 38 39  1  0  0  0  0
 39 26  2  0  0  0  0
M  END
>  <Mol_ID> (451)
2800

>  <Formula> (451)
C28H21F4N5O2

>  <MolWeight> (451)
535.4922528

>  <Cat> (451)
S7519

>  <Name> (451)
GNF-5837

>  <Synonyms> (451)
N/A

>  <Target> (451)
Trk receptor

>  <Form> (451)
Free Base

>  <CAS> (451)
1033769-28-6

>  <URL> (451)
http://www.selleckchem.com/products/gnf-5837.html

$$$$
LY2874455.cdx
csChFnd80/05071909292D

 30 33  0  0  0  0  0  0  0  0999 V2000
    0.0000    4.2000    0.0000 N   0  0  0  0  0  0  0  0  0  0  0  0
    0.0000    2.8000    0.0000 C   0  0  0  0  0  0  0  0  0  0  0  0
    1.2124    2.1000    0.0000 C   0  0  0  0  0  0  0  0  0  0  0  0
    2.4249    2.8000    0.0000 C   0  0  0  0  0  0  0  0  0  0  0  0
    2.4249    4.2000    0.0000 C   0  0  0  0  0  0  0  0  0  0  0  0
    1.2124    4.9000    0.0000 C   0  0  0  0  0  0  0  0  0  0  0  0
    3.6373    4.9000    0.0000 Cl  0  0  0  0  0  0  0  0  0  0  0  0
    1.2124    0.7000    0.0000 Cl  0  0  0  0  0  0  0  0  0  0  0  0
    3.6373    2.1000    0.0000 C   0  0  2  0  0  0  0  0  0  0  0  0
    4.8497    2.8000    0.0000 O   0  0  0  0  0  0  0  0  0  0  0  0
    6.0622    2.1000    0.0000 C   0  0  0  0  0  0  0  0  0  0  0  0
    6.0622    0.7000    0.0000 C   0  0  0  0  0  0  0  0  0  0  0  0
    7.2746    0.0000    0.0000 C   0  0  0  0  0  0  0  0  0  0  0  0
    8.4870    0.7000    0.0000 C   0  0  0  0  0  0  0  0  0  0  0  0
    8.4870    2.1000    0.0000 C   0  0  0  0  0  0  0  0  0  0  0  0
    7.2746    2.8000    0.0000 C   0  0  0  0  0  0  0  0  0  0  0  0
    9.8185    0.2674    0.0000 N   0  0  0  0  0  0  0  0  0  0  0  0
   10.6414    1.4000    0.0000 N   0  0  0  0  0  0  0  0  0  0  0  0
    9.8185    2.5326    0.0000 C   0  0  0  0  0  0  0  0  0  0  0  0
   10.2512    3.8641    0.0000 C   0  0  0  0  0  0  0  0  0  0  0  0
   11.6206    4.1552    0.0000 C   0  0  0  0  0  0  0  0  0  0  0  0
   12.0532    5.4867    0.0000 C   0  0  0  0  0  0  0  0  0  0  0  0
   13.3847    5.9193    0.0000 C   0  0  0  0  0  0  0  0  0  0  0  0
   13.3847    7.3193    0.0000 N   0  0  0  0  0  0  0  0  0  0  0  0
   12.0532    7.7519    0.0000 N   0  0  0  0  0  0  0  0  0  0  0  0
   11.2303    6.6193    0.0000 C   0  0  0  0  0  0  0  0  0  0  0  0
   14.5173    8.1422    0.0000 C   0  0  0  0  0  0  0  0  0  0  0  0
   15.7962    7.5728    0.0000 C   0  0  0  0  0  0  0  0  0  0  0  0
   16.9289    8.3957    0.0000 O   0  0  0  0  0  0  0  0  0  0  0  0
    3.6373    0.7000    0.0000 C   0  0  0  0  0  0  0  0  0  0  0  0
  1  2  2  0  0  0  0
  2  3  1  0  0  0  0
  3  4  2  0  0  0  0
  4  5  1  0  0  0  0
  5  6  2  0  0  0  0
  6  1  1  0  0  0  0
  5  7  1  0  0  0  0
  3  8  1  0  0  0  0
  4  9  1  0  0  0  0
  9 10  1  0  0  0  0
 10 11  1  0  0  0  0
 11 12  2  0  0  0  0
 12 13  1  0  0  0  0
 13 14  2  0  0  0  0
 14 15  1  0  0  0  0
 15 16  2  0  0  0  0
 16 11  1  0  0  0  0
 14 17  1  0  0  0  0
 17 18  1  0  0  0  0
 18 19  2  0  0  0  0
 19 15  1  0  0  0  0
 19 20  1  0  0  0  0
 20 21  2  0  0  0  0
 21 22  1  0  0  0  0
 22 23  2  0  0  0  0
 23 24  1  0  0  0  0
 24 25  1  0  0  0  0
 25 26  2  0  0  0  0
 26 22  1  0  0  0  0
 24 27  1  0  0  0  0
 27 28  1  0  0  0  0
 28 29  1  0  0  0  0
  9 30  1  6  0  0  0
M  END
>  <Mol_ID> (452)
2804

>  <Formula> (452)
C21H19Cl2N5O2

>  <MolWeight> (452)
444.31386

>  <Cat> (452)
S7057

>  <Name> (452)
LY2874455

>  <Synonyms> (452)
N/A

>  <Target> (452)
FGFR

>  <Form> (452)
Free Base

>  <CAS> (452)
1254473-64-7

>  <URL> (452)
http://www.selleckchem.com/products/ly2874455.html

$$$$
URMC-099.cdx
csChFnd80/05071909292D

 32 37  0  0  0  0  0  0  0  0999 V2000
    3.6873    8.4079    0.0000 C   0  0  0  0  0  0  0  0  0  0  0  0
    2.4778    7.7029    0.0000 C   0  0  0  0  0  0  0  0  0  0  0  0
    2.4850    6.3004    0.0000 C   0  0  0  0  0  0  0  0  0  0  0  0
    3.6989    5.6080    0.0000 C   0  0  0  0  0  0  0  0  0  0  0  0
    4.9084    6.3130    0.0000 C   0  0  0  0  0  0  0  0  0  0  0  0
    4.9011    7.7155    0.0000 C   0  0  0  0  0  0  0  0  0  0  0  0
    1.2726    5.6004    0.0000 C   0  0  0  0  0  0  0  0  0  0  0  0
    1.2726    4.1981    0.0000 N   0  0  0  0  0  0  0  0  0  0  0  0
    0.0229    3.5213    0.0000 C   0  0  0  0  0  0  0  0  0  0  0  0
    0.0000    2.1214    0.0000 C   0  0  0  0  0  0  0  0  0  0  0  0
    1.1927    1.3998    0.0000 N   0  0  0  0  0  0  0  0  0  0  0  0
    2.4245    2.0817    0.0000 C   0  0  0  0  0  0  0  0  0  0  0  0
    2.4475    3.4816    0.0000 C   0  0  0  0  0  0  0  0  0  0  0  0
    6.1136    8.4155    0.0000 C   0  0  0  0  0  0  0  0  0  0  0  0
    7.3275    7.7231    0.0000 C   0  0  0  0  0  0  0  0  0  0  0  0
    8.5370    8.4281    0.0000 C   0  0  0  0  0  0  0  0  0  0  0  0
    8.5312    9.8281    0.0000 C   0  0  0  0  0  0  0  0  0  0  0  0
    7.3195   10.5224    0.0000 N   0  0  0  0  0  0  0  0  0  0  0  0
    6.1063    9.8180    0.0000 C   0  0  0  0  0  0  0  0  0  0  0  0
    9.8702    8.0010    0.0000 C   0  0  0  0  0  0  0  0  0  0  0  0
   10.6884    9.1371    0.0000 C   0  0  0  0  0  0  0  0  0  0  0  0
    9.8619   10.2656    0.0000 N   0  0  0  0  0  0  0  0  0  0  0  0
   10.3084    6.6714    0.0000 C   0  0  0  0  0  0  0  0  0  0  0  0
    9.3759    5.6271    0.0000 C   0  0  0  0  0  0  0  0  0  0  0  0
    9.8141    4.2974    0.0000 C   0  0  0  0  0  0  0  0  0  0  0  0
   11.1847    4.0120    0.0000 C   0  0  0  0  0  0  0  0  0  0  0  0
   12.1172    5.0563    0.0000 C   0  0  0  0  0  0  0  0  0  0  0  0
   11.6790    6.3860    0.0000 C   0  0  0  0  0  0  0  0  0  0  0  0
   11.8920    2.8014    0.0000 N   0  0  0  0  0  0  0  0  0  0  0  0
   13.2579    3.0993    0.0000 C   0  0  0  0  0  0  0  0  0  0  0  0
   13.3985    4.4922    0.0000 C   0  0  0  0  0  0  0  0  0  0  0  0
    1.1927    0.0000    0.0000 C   0  0  0  0  0  0  0  0  0  0  0  0
  1  2  2  0  0  0  0
  2  3  1  0  0  0  0
  3  4  2  0  0  0  0
  4  5  1  0  0  0  0
  5  6  2  0  0  0  0
  6  1  1  0  0  0  0
  3  7  1  0  0  0  0
  7  8  1  0  0  0  0
  8  9  1  0  0  0  0
  9 10  1  0  0  0  0
 10 11  1  0  0  0  0
 11 12  1  0  0  0  0
 12 13  1  0  0  0  0
 13  8  1  0  0  0  0
  6 14  1  0  0  0  0
 14 15  2  0  0  0  0
 15 16  1  0  0  0  0
 16 17  2  0  0  0  0
 17 18  1  0  0  0  0
 18 19  2  0  0  0  0
 19 14  1  0  0  0  0
 16 20  1  0  0  0  0
 20 21  2  0  0  0  0
 21 22  1  0  0  0  0
 22 17  1  0  0  0  0
 20 23  1  0  0  0  0
 23 24  2  0  0  0  0
 24 25  1  0  0  0  0
 25 26  2  0  0  0  0
 26 27  1  0  0  0  0
 27 28  2  0  0  0  0
 28 23  1  0  0  0  0
 26 29  1  0  0  0  0
 29 30  1  0  0  0  0
 30 31  2  0  0  0  0
 31 27  1  0  0  0  0
 11 32  1  0  0  0  0
M  END
>  <Mol_ID> (453)
2805

>  <Formula> (453)
C27H27N5

>  <MolWeight> (453)
421.53678

>  <Cat> (453)
S7343

>  <Name> (453)
URMC-099

>  <Synonyms> (453)
N/A

>  <Target> (453)
Others

>  <Form> (453)
Free Base

>  <CAS> (453)
1229582-33-5

>  <URL> (453)
http://www.selleckchem.com/products/urmc-099.html

$$$$
GSK650394.cdx
csChFnd80/05071909292D

 29 33  0  0  0  0  0  0  0  0999 V2000
    3.6373    2.1000    0.0000 C   0  0  0  0  0  0  0  0  0  0  0  0
    3.6373    0.7000    0.0000 C   0  0  0  0  0  0  0  0  0  0  0  0
    4.8497    0.0000    0.0000 N   0  0  0  0  0  0  0  0  0  0  0  0
    6.0622    0.7000    0.0000 C   0  0  0  0  0  0  0  0  0  0  0  0
    6.0622    2.1000    0.0000 C   0  0  0  0  0  0  0  0  0  0  0  0
    4.8497    2.8000    0.0000 C   0  0  0  0  0  0  0  0  0  0  0  0
    7.3937    0.2674    0.0000 N   0  0  0  0  0  0  0  0  0  0  0  0
    8.2166    1.4000    0.0000 C   0  0  0  0  0  0  0  0  0  0  0  0
    7.3937    2.5326    0.0000 C   0  0  0  0  0  0  0  0  0  0  0  0
    2.4249    2.8000    0.0000 C   0  0  0  0  0  0  0  0  0  0  0  0
    7.8263    3.8641    0.0000 C   0  0  0  0  0  0  0  0  0  0  0  0
    9.1957    4.1552    0.0000 C   0  0  0  0  0  0  0  0  0  0  0  0
    9.6283    5.4867    0.0000 C   0  0  0  0  0  0  0  0  0  0  0  0
    8.6915    6.5271    0.0000 C   0  0  0  0  0  0  0  0  0  0  0  0
    7.3221    6.2360    0.0000 C   0  0  0  0  0  0  0  0  0  0  0  0
    6.8895    4.9045    0.0000 C   0  0  0  0  0  0  0  0  0  0  0  0
    2.4249    4.2000    0.0000 C   0  0  0  0  0  0  0  0  0  0  0  0
    1.2124    4.9000    0.0000 C   0  0  0  0  0  0  0  0  0  0  0  0
    0.0000    4.2000    0.0000 C   0  0  0  0  0  0  0  0  0  0  0  0
    0.0000    2.8000    0.0000 C   0  0  0  0  0  0  0  0  0  0  0  0
    1.2124    2.1000    0.0000 C   0  0  0  0  0  0  0  0  0  0  0  0
    9.1242    7.8585    0.0000 C   0  0  0  0  0  0  0  0  0  0  0  0
    8.1874    8.8989    0.0000 O   0  0  0  0  0  0  0  0  0  0  0  0
   10.4936    8.1496    0.0000 O   0  0  0  0  0  0  0  0  0  0  0  0
   10.9977    5.7777    0.0000 C   0  0  0  0  0  0  0  0  0  0  0  0
   12.0381    4.8410    0.0000 C   0  0  0  0  0  0  0  0  0  0  0  0
   13.2506    5.5410    0.0000 C   0  0  0  0  0  0  0  0  0  0  0  0
   12.9595    6.9104    0.0000 C   0  0  0  0  0  0  0  0  0  0  0  0
   11.5671    7.0567    0.0000 C   0  0  0  0  0  0  0  0  0  0  0  0
  1  2  2  0  0  0  0
  2  3  1  0  0  0  0
  3  4  2  0  0  0  0
  4  5  1  0  0  0  0
  5  6  2  0  0  0  0
  6  1  1  0  0  0  0
  4  7  1  0  0  0  0
  7  8  1  0  0  0  0
  8  9  2  0  0  0  0
  9  5  1  0  0  0  0
  1 10  1  0  0  0  0
  9 11  1  0  0  0  0
 11 12  2  0  0  0  0
 12 13  1  0  0  0  0
 13 14  2  0  0  0  0
 14 15  1  0  0  0  0
 15 16  2  0  0  0  0
 16 11  1  0  0  0  0
 10 17  2  0  0  0  0
 17 18  1  0  0  0  0
 18 19  2  0  0  0  0
 19 20  1  0  0  0  0
 20 21  2  0  0  0  0
 21 10  1  0  0  0  0
 14 22  1  0  0  0  0
 22 23  2  0  0  0  0
 22 24  1  0  0  0  0
 13 25  1  0  0  0  0
 25 26  1  0  0  0  0
 26 27  1  0  0  0  0
 27 28  1  0  0  0  0
 28 29  1  0  0  0  0
 29 25  1  0  0  0  0
M  END
>  <Mol_ID> (454)
2811

>  <Formula> (454)
C25H22N2O2

>  <MolWeight> (454)
382.45438

>  <Cat> (454)
S7209

>  <Name> (454)
GSK650394

>  <Synonyms> (454)
N/A

>  <Target> (454)
Others

>  <Form> (454)
Free Base

>  <CAS> (454)
890842-28-1

>  <URL> (454)
http://www.selleckchem.com/products/gsk650394.html

$$$$
G-749.cdx
csChFnd80/05071909292D

 34 38  0  0  0  0  0  0  0  0999 V2000
    2.4249   10.5000    0.0000 N   0  0  0  0  0  0  0  0  0  0  0  0
    2.4249    9.1000    0.0000 C   0  0  0  0  0  0  0  0  0  0  0  0
    3.6373    8.4000    0.0000 N   0  0  0  0  0  0  0  0  0  0  0  0
    4.8497    9.1000    0.0000 C   0  0  0  0  0  0  0  0  0  0  0  0
    4.8497   10.5000    0.0000 C   0  0  0  0  0  0  0  0  0  0  0  0
    3.6373   11.2000    0.0000 C   0  0  0  0  0  0  0  0  0  0  0  0
    6.0622   11.2000    0.0000 C   0  0  0  0  0  0  0  0  0  0  0  0
    6.0622   12.6000    0.0000 N   0  0  0  0  0  0  0  0  0  0  0  0
    4.8497   13.3000    0.0000 C   0  0  0  0  0  0  0  0  0  0  0  0
    3.6373   12.6000    0.0000 C   0  0  0  0  0  0  0  0  0  0  0  0
    2.4249   13.3000    0.0000 Br  0  0  0  0  0  0  0  0  0  0  0  0
    7.2746   10.5000    0.0000 O   0  0  0  0  0  0  0  0  0  0  0  0
    6.0622    8.4000    0.0000 N   0  0  0  0  0  0  0  0  0  0  0  0
    6.0622    7.0000    0.0000 C   0  0  0  0  0  0  0  0  0  0  0  0
    4.8497    6.3000    0.0000 C   0  0  0  0  0  0  0  0  0  0  0  0
    4.8497    4.9000    0.0000 C   0  0  0  0  0  0  0  0  0  0  0  0
    6.0622    4.2000    0.0000 C   0  0  0  0  0  0  0  0  0  0  0  0
    7.2746    4.9000    0.0000 C   0  0  0  0  0  0  0  0  0  0  0  0
    7.2746    6.3000    0.0000 C   0  0  0  0  0  0  0  0  0  0  0  0
    6.0622    2.8000    0.0000 O   0  0  0  0  0  0  0  0  0  0  0  0
    7.2746    2.1000    0.0000 C   0  0  0  0  0  0  0  0  0  0  0  0
    7.2746    0.7000    0.0000 C   0  0  0  0  0  0  0  0  0  0  0  0
    8.4870    0.0000    0.0000 C   0  0  0  0  0  0  0  0  0  0  0  0
    9.6995    0.7000    0.0000 C   0  0  0  0  0  0  0  0  0  0  0  0
    9.6995    2.1000    0.0000 C   0  0  0  0  0  0  0  0  0  0  0  0
    8.4870    2.8000    0.0000 C   0  0  0  0  0  0  0  0  0  0  0  0
    1.2124    8.4000    0.0000 N   0  0  0  0  0  0  0  0  0  0  0  0
    1.2124    7.0000    0.0000 C   0  0  0  0  0  0  0  0  0  0  0  0
    0.0000    6.3000    0.0000 C   0  0  0  0  0  0  0  0  0  0  0  0
    0.0000    4.9000    0.0000 C   0  0  0  0  0  0  0  0  0  0  0  0
    1.2124    4.2000    0.0000 N   0  0  0  0  0  0  0  0  0  0  0  0
    2.4249    4.9000    0.0000 C   0  0  0  0  0  0  0  0  0  0  0  0
    2.4249    6.3000    0.0000 C   0  0  0  0  0  0  0  0  0  0  0  0
    1.2124    2.8000    0.0000 C   0  0  0  0  0  0  0  0  0  0  0  0
  1  2  2  0  0  0  0
  2  3  1  0  0  0  0
  3  4  2  0  0  0  0
  4  5  1  0  0  0  0
  5  6  2  0  0  0  0
  6  1  1  0  0  0  0
  5  7  1  0  0  0  0
  7  8  1  0  0  0  0
  8  9  1  0  0  0  0
  9 10  2  0  0  0  0
 10  6  1  0  0  0  0
 10 11  1  0  0  0  0
  7 12  2  0  0  0  0
  4 13  1  0  0  0  0
 13 14  1  0  0  0  0
 14 15  2  0  0  0  0
 15 16  1  0  0  0  0
 16 17  2  0  0  0  0
 17 18  1  0  0  0  0
 18 19  2  0  0  0  0
 19 14  1  0  0  0  0
 17 20  1  0  0  0  0
 20 21  1  0  0  0  0
 21 22  2  0  0  0  0
 22 23  1  0  0  0  0
 23 24  2  0  0  0  0
 24 25  1  0  0  0  0
 25 26  2  0  0  0  0
 26 21  1  0  0  0  0
  2 27  1  0  0  0  0
 27 28  1  0  0  0  0
 28 29  1  0  0  0  0
 29 30  1  0  0  0  0
 30 31  1  0  0  0  0
 31 32  1  0  0  0  0
 32 33  1  0  0  0  0
 33 28  1  0  0  0  0
 31 34  1  0  0  0  0
M  END
>  <Mol_ID> (455)
2812

>  <Formula> (455)
C25H25BrN6O2

>  <MolWeight> (455)
521.409

>  <Cat> (455)
S7545

>  <Name> (455)
G-749

>  <Synonyms> (455)
N/A

>  <Target> (455)
FLT3

>  <Form> (455)
Free Base

>  <CAS> (455)
1457983-28-6

>  <URL> (455)
http://www.selleckchem.com/products/g-749.html

$$$$
EW-7197.cdx
csChFnd80/05071909292D

 30 34  0  0  0  0  0  0  0  0999 V2000
    5.6136    5.8305    0.0000 C   0  0  0  0  0  0  0  0  0  0  0  0
    5.6136    4.4305    0.0000 C   0  0  0  0  0  0  0  0  0  0  0  0
    6.9451    3.9978    0.0000 N   0  0  0  0  0  0  0  0  0  0  0  0
    7.7680    5.1305    0.0000 C   0  0  0  0  0  0  0  0  0  0  0  0
    6.9451    6.2631    0.0000 N   0  0  0  0  0  0  0  0  0  0  0  0
    9.1680    5.1305    0.0000 C   0  0  0  0  0  0  0  0  0  0  0  0
    9.8680    6.3429    0.0000 N   0  0  0  0  0  0  0  0  0  0  0  0
   11.2680    6.3429    0.0000 C   0  0  0  0  0  0  0  0  0  0  0  0
    4.4810    3.6076    0.0000 C   0  0  0  0  0  0  0  0  0  0  0  0
    4.4810    6.6534    0.0000 C   0  0  0  0  0  0  0  0  0  0  0  0
    4.6273    8.0457    0.0000 C   0  0  0  0  0  0  0  0  0  0  0  0
    3.4947    8.8686    0.0000 C   0  0  0  0  0  0  0  0  0  0  0  0
    2.2157    8.2992    0.0000 C   0  0  0  0  0  0  0  0  0  0  0  0
    2.0694    6.9068    0.0000 N   0  0  0  0  0  0  0  0  0  0  0  0
    3.2020    6.0839    0.0000 C   0  0  0  0  0  0  0  0  0  0  0  0
    3.2020    4.1770    0.0000 C   0  0  0  0  0  0  0  0  0  0  0  0
    2.0694    3.3541    0.0000 C   0  0  0  0  0  0  0  0  0  0  0  0
    2.2157    1.9618    0.0000 C   0  0  0  0  0  0  0  0  0  0  0  0
    3.4947    1.3923    0.0000 C   0  0  0  0  0  0  0  0  0  0  0  0
    4.6273    2.2152    0.0000 N   0  0  0  0  0  0  0  0  0  0  0  0
   11.9680    5.1305    0.0000 C   0  0  0  0  0  0  0  0  0  0  0  0
   13.3680    5.1305    0.0000 C   0  0  0  0  0  0  0  0  0  0  0  0
   14.0680    6.3429    0.0000 C   0  0  0  0  0  0  0  0  0  0  0  0
   13.3680    7.5553    0.0000 C   0  0  0  0  0  0  0  0  0  0  0  0
   11.9680    7.5553    0.0000 C   0  0  0  0  0  0  0  0  0  0  0  0
   11.2680    8.7678    0.0000 F   0  0  0  0  0  0  0  0  0  0  0  0
    3.6410    0.0000    0.0000 C   0  0  0  0  0  0  0  0  0  0  0  0
    0.9368    8.8686    0.0000 N   0  0  0  0  0  0  0  0  0  0  0  0
    0.0000    7.8282    0.0000 C   0  0  0  0  0  0  0  0  0  0  0  0
    0.7000    6.6158    0.0000 N   0  0  0  0  0  0  0  0  0  0  0  0
  1  2  2  0  0  0  0
  2  3  1  0  0  0  0
  3  4  1  0  0  0  0
  4  5  2  0  0  0  0
  5  1  1  0  0  0  0
  4  6  1  0  0  0  0
  6  7  1  0  0  0  0
  7  8  1  0  0  0  0
  2  9  1  0  0  0  0
  1 10  1  0  0  0  0
 10 11  1  0  0  0  0
 11 12  2  0  0  0  0
 12 13  1  0  0  0  0
 13 14  1  0  0  0  0
 14 15  1  0  0  0  0
 15 10  2  0  0  0  0
  9 16  2  0  0  0  0
 16 17  1  0  0  0  0
 17 18  2  0  0  0  0
 18 19  1  0  0  0  0
 19 20  2  0  0  0  0
 20  9  1  0  0  0  0
  8 21  2  0  0  0  0
 21 22  1  0  0  0  0
 22 23  2  0  0  0  0
 23 24  1  0  0  0  0
 24 25  2  0  0  0  0
 25  8  1  0  0  0  0
 25 26  1  0  0  0  0
 19 27  1  0  0  0  0
 13 28  2  0  0  0  0
 28 29  1  0  0  0  0
 29 30  2  0  0  0  0
 30 14  1  0  0  0  0
M  END
>  <Mol_ID> (456)
2813

>  <Formula> (456)
C22H18FN7

>  <MolWeight> (456)
399.4236232

>  <Cat> (456)
S7530

>  <Name> (456)
EW-7197

>  <Synonyms> (456)
N/A

>  <Target> (456)
TGF-beta/Smad

>  <Form> (456)
Free Base

>  <CAS> (456)
1352608-82-2

>  <URL> (456)
http://www.selleckchem.com/products/ew-7197.html

$$$$
VS-5584 (SB2343).cdx
csChFnd80/05071909292D

 26 29  0  0  0  0  0  0  0  0999 V2000
    3.6373    8.4045    0.0000 N   0  0  0  0  0  0  0  0  0  0  0  0
    3.6373    7.0045    0.0000 C   0  0  0  0  0  0  0  0  0  0  0  0
    4.8497    6.3045    0.0000 C   0  0  0  0  0  0  0  0  0  0  0  0
    6.0622    7.0045    0.0000 C   0  0  0  0  0  0  0  0  0  0  0  0
    6.0622    8.4045    0.0000 N   0  0  0  0  0  0  0  0  0  0  0  0
    4.8497    9.1045    0.0000 C   0  0  0  0  0  0  0  0  0  0  0  0
    4.8497    4.9045    0.0000 C   0  0  0  0  0  0  0  0  0  0  0  0
    4.8497   10.5045    0.0000 N   0  0  0  0  0  0  0  0  0  0  0  0
    3.6373    4.2045    0.0000 N   0  0  0  0  0  0  0  0  0  0  0  0
    3.6373    2.8045    0.0000 C   0  0  0  0  0  0  0  0  0  0  0  0
    4.8497    2.1045    0.0000 N   0  0  0  0  0  0  0  0  0  0  0  0
    6.0622    2.8045    0.0000 C   0  0  0  0  0  0  0  0  0  0  0  0
    6.0622    4.2045    0.0000 C   0  0  0  0  0  0  0  0  0  0  0  0
    2.4249    2.1045    0.0000 N   0  0  0  0  0  0  0  0  0  0  0  0
    7.3937    2.3719    0.0000 N   0  0  0  0  0  0  0  0  0  0  0  0
    8.2166    3.5045    0.0000 C   0  0  0  0  0  0  0  0  0  0  0  0
    7.3937    4.6371    0.0000 N   0  0  0  0  0  0  0  0  0  0  0  0
    7.8263    1.0404    0.0000 C   0  0  0  0  0  0  0  0  0  0  0  0
    6.8895    0.0000    0.0000 C   0  0  0  0  0  0  0  0  0  0  0  0
    9.1957    0.7493    0.0000 C   0  0  0  0  0  0  0  0  0  0  0  0
    9.6166    3.5045    0.0000 C   0  0  0  0  0  0  0  0  0  0  0  0
    1.2124    2.8045    0.0000 C   0  0  0  0  0  0  0  0  0  0  0  0
    0.0000    2.1045    0.0000 C   0  0  0  0  0  0  0  0  0  0  0  0
    0.0000    0.7045    0.0000 O   0  0  0  0  0  0  0  0  0  0  0  0
    1.2124    0.0045    0.0000 C   0  0  0  0  0  0  0  0  0  0  0  0
    2.4249    0.7045    0.0000 C   0  0  0  0  0  0  0  0  0  0  0  0
  1  2  2  0  0  0  0
  2  3  1  0  0  0  0
  3  4  2  0  0  0  0
  4  5  1  0  0  0  0
  5  6  2  0  0  0  0
  6  1  1  0  0  0  0
  3  7  1  0  0  0  0
  6  8  1  0  0  0  0
  7  9  2  0  0  0  0
  9 10  1  0  0  0  0
 10 11  2  0  0  0  0
 11 12  1  0  0  0  0
 12 13  2  0  0  0  0
 13  7  1  0  0  0  0
 10 14  1  0  0  0  0
 12 15  1  0  0  0  0
 15 16  1  0  0  0  0
 16 17  2  0  0  0  0
 17 13  1  0  0  0  0
 15 18  1  0  0  0  0
 18 19  1  0  0  0  0
 18 20  1  0  0  0  0
 16 21  1  0  0  0  0
 14 22  1  0  0  0  0
 22 23  1  0  0  0  0
 23 24  1  0  0  0  0
 24 25  1  0  0  0  0
 25 26  1  0  0  0  0
 26 14  1  0  0  0  0
M  END
>  <Mol_ID> (457)
2818

>  <Formula> (457)
C17H22N8O

>  <MolWeight> (457)
354.40958

>  <Cat> (457)
S7016

>  <Name> (457)
VS-5584 (SB2343)

>  <Synonyms> (457)
N/A

>  <Target> (457)
PI3K

>  <Form> (457)
Free Base

>  <CAS> (457)
1246560-33-7

>  <URL> (457)
http://www.selleckchem.com/products/vs-5584-sb2343.html

$$$$
GF 109203X(G 6850).cdx
csChFnd80/05071909292D

 31 35  0  0  0  0  0  0  0  0999 V2000
    1.1450    6.1261    0.0000 C   0  0  0  0  0  0  0  0  0  0  0  0
    2.5133    6.4225    0.0000 C   0  0  0  0  0  0  0  0  0  0  0  0
    2.9397    7.7526    0.0000 C   0  0  0  0  0  0  0  0  0  0  0  0
    2.0043    8.7833    0.0000 C   0  0  0  0  0  0  0  0  0  0  0  0
    0.6463    8.4891    0.0000 C   0  0  0  0  0  0  0  0  0  0  0  0
    0.2224    7.1671    0.0000 C   0  0  0  0  0  0  0  0  0  0  0  0
    3.6455    5.5943    0.0000 N   0  0  0  0  0  0  0  0  0  0  0  0
    4.7793    6.4156    0.0000 C   0  0  0  0  0  0  0  0  0  0  0  0
    4.3486    7.7477    0.0000 C   0  0  0  0  0  0  0  0  0  0  0  0
    5.1743    8.8783    0.0000 C   0  0  0  0  0  0  0  0  0  0  0  0
    4.7462   10.2184    0.0000 C   0  0  0  0  0  0  0  0  0  0  0  0
    3.6422    4.1943    0.0000 C   0  0  0  0  0  0  0  0  0  0  0  0
    2.4281    3.4972    0.0000 C   0  0  0  0  0  0  0  0  0  0  0  0
    2.4249    2.0972    0.0000 C   0  0  0  0  0  0  0  0  0  0  0  0
    1.2108    1.4000    0.0000 N   0  0  0  0  0  0  0  0  0  0  0  0
    3.4193   10.6651    0.0000 O   0  0  0  0  0  0  0  0  0  0  0  0
    5.8774   11.0316    0.0000 N   0  0  0  0  0  0  0  0  0  0  0  0
    1.2075    0.0000    0.0000 C   0  0  0  0  0  0  0  0  0  0  0  0
    0.0000    2.1028    0.0000 C   0  0  0  0  0  0  0  0  0  0  0  0
   11.1622    8.5351    0.0000 C   0  0  0  0  0  0  0  0  0  0  0  0
   11.5994    7.2051    0.0000 C   0  0  0  0  0  0  0  0  0  0  0  0
   10.6662    6.1615    0.0000 C   0  0  0  0  0  0  0  0  0  0  0  0
    9.2958    6.4479    0.0000 C   0  0  0  0  0  0  0  0  0  0  0  0
    8.8586    7.7739    0.0000 C   0  0  0  0  0  0  0  0  0  0  0  0
    9.7918    8.8215    0.0000 C   0  0  0  0  0  0  0  0  0  0  0  0
    8.1660    5.6211    0.0000 N   0  0  0  0  0  0  0  0  0  0  0  0
    7.0223    6.4427    0.0000 C   0  0  0  0  0  0  0  0  0  0  0  0
    7.4337    7.7595    0.0000 C   0  0  0  0  0  0  0  0  0  0  0  0
    6.6028    8.8863    0.0000 C   0  0  0  0  0  0  0  0  0  0  0  0
    7.0099   10.1943    0.0000 C   0  0  0  0  0  0  0  0  0  0  0  0
    8.3365   10.6415    0.0000 O   0  0  0  0  0  0  0  0  0  0  0  0
  1  2  2  0  0  0  0
  2  3  1  0  0  0  0
  3  4  2  0  0  0  0
  4  5  1  0  0  0  0
  5  6  2  0  0  0  0
  6  1  1  0  0  0  0
  2  7  1  0  0  0  0
  7  8  1  0  0  0  0
  8  9  2  0  0  0  0
  9  3  1  0  0  0  0
  9 10  1  0  0  0  0
 10 11  1  0  0  0  0
  7 12  1  0  0  0  0
 12 13  1  0  0  0  0
 13 14  1  0  0  0  0
 14 15  1  0  0  0  0
 11 16  2  0  0  0  0
 11 17  1  0  0  0  0
 15 18  1  0  0  0  0
 15 19  1  0  0  0  0
 20 21  2  0  0  0  0
 21 22  1  0  0  0  0
 22 23  2  0  0  0  0
 23 24  1  0  0  0  0
 24 25  2  0  0  0  0
 25 20  1  0  0  0  0
 23 26  1  0  0  0  0
 26 27  1  0  0  0  0
 27 28  2  0  0  0  0
 28 24  1  0  0  0  0
 28 29  1  0  0  0  0
 29 30  1  0  0  0  0
 30 31  2  0  0  0  0
 17 30  1  0  0  0  0
 10 29  2  0  0  0  0
M  END
>  <Mol_ID> (458)
2819

>  <Formula> (458)
C25H24N4O2

>  <MolWeight> (458)
412.48366

>  <Cat> (458)
S7208

>  <Name> (458)
Bisindolylmaleimide I (GF109203X)

>  <Synonyms> (458)
GO 6850

>  <Target> (458)
PKC

>  <Form> (458)
Free Base

>  <CAS> (458)
133052-90-1

>  <URL> (458)
http://www.selleckchem.com/products/gf109203x.html

$$$$
Ro5203280.cdx
csChFnd80/05071909292D

 39 43  0  0  0  0  0  0  0  0999 V2000
    7.2746    5.8939    0.0000 C   0  0  0  0  0  0  0  0  0  0  0  0
    7.2746    4.4939    0.0000 C   0  0  0  0  0  0  0  0  0  0  0  0
    8.4871    3.7939    0.0000 C   0  0  0  0  0  0  0  0  0  0  0  0
    9.6995    4.4939    0.0000 C   0  0  0  0  0  0  0  0  0  0  0  0
    9.6995    5.8939    0.0000 C   0  0  0  0  0  0  0  0  0  0  0  0
    8.4871    6.5939    0.0000 C   0  0  0  0  0  0  0  0  0  0  0  0
    6.0622    6.5939    0.0000 C   0  0  0  0  0  0  0  0  0  0  0  0
    4.8497    5.8939    0.0000 N   0  0  0  0  0  0  0  0  0  0  0  0
    6.0622    7.9939    0.0000 O   0  0  0  0  0  0  0  0  0  0  0  0
    3.6373    6.5939    0.0000 C   0  0  0  0  0  0  0  0  0  0  0  0
    8.4871    2.3939    0.0000 O   0  0  0  0  0  0  0  0  0  0  0  0
    7.2746    1.6939    0.0000 C   0  0  0  0  0  0  0  0  0  0  0  0
   10.9119    3.7939    0.0000 N   0  0  0  0  0  0  0  0  0  0  0  0
   12.1244    4.4939    0.0000 C   0  0  0  0  0  0  0  0  0  0  0  0
   13.3368    3.7939    0.0000 N   0  0  0  0  0  0  0  0  0  0  0  0
   14.5492    4.4939    0.0000 C   0  0  0  0  0  0  0  0  0  0  0  0
   14.5492    5.8939    0.0000 C   0  0  0  0  0  0  0  0  0  0  0  0
   13.3368    6.5939    0.0000 C   0  0  0  0  0  0  0  0  0  0  0  0
   12.1244    5.8939    0.0000 N   0  0  0  0  0  0  0  0  0  0  0  0
    3.6373    7.9939    0.0000 C   0  0  0  0  0  0  0  0  0  0  0  0
    2.4249    8.6939    0.0000 C   0  0  0  0  0  0  0  0  0  0  0  0
    1.2124    7.9939    0.0000 N   0  0  0  0  0  0  0  0  0  0  0  0
    1.2124    6.5939    0.0000 C   0  0  0  0  0  0  0  0  0  0  0  0
    2.4249    5.8939    0.0000 C   0  0  0  0  0  0  0  0  0  0  0  0
    0.0000    8.6939    0.0000 C   0  0  0  0  0  0  0  0  0  0  0  0
   15.6438    3.6210    0.0000 N   0  0  0  0  0  0  0  0  0  0  0  0
   17.0087    3.9326    0.0000 C   0  0  0  0  0  0  0  0  0  0  0  0
   17.6161    5.1939    0.0000 C   0  0  0  0  0  0  0  0  0  0  0  0
   17.0087    6.4553    0.0000 C   0  0  0  0  0  0  0  0  0  0  0  0
   15.6438    6.7668    0.0000 N   0  0  0  0  0  0  0  0  0  0  0  0
   15.3323    8.1317    0.0000 C   0  0  0  0  0  0  0  0  0  0  0  0
   17.8816    7.5498    0.0000 O   0  0  0  0  0  0  0  0  0  0  0  0
   18.6061    6.1839    0.0000 F   0  0  0  0  0  0  0  0  0  0  0  0
   18.9684    4.8316    0.0000 F   0  0  0  0  0  0  0  0  0  0  0  0
   15.3323    2.2561    0.0000 C   0  0  0  0  0  0  0  0  0  0  0  0
   14.0449    1.7059    0.0000 C   0  0  0  0  0  0  0  0  0  0  0  0
   14.1704    0.3115    0.0000 C   0  0  0  0  0  0  0  0  0  0  0  0
   15.5353    0.0000    0.0000 C   0  0  0  0  0  0  0  0  0  0  0  0
   16.2534    1.2018    0.0000 C   0  0  0  0  0  0  0  0  0  0  0  0
  1  2  2  0  0  0  0
  2  3  1  0  0  0  0
  3  4  2  0  0  0  0
  4  5  1  0  0  0  0
  5  6  2  0  0  0  0
  6  1  1  0  0  0  0
  1  7  1  0  0  0  0
  7  8  1  0  0  0  0
  7  9  2  0  0  0  0
  8 10  1  0  0  0  0
  3 11  1  0  0  0  0
 11 12  1  0  0  0  0
  4 13  1  0  0  0  0
 13 14  1  0  0  0  0
 14 15  2  0  0  0  0
 15 16  1  0  0  0  0
 16 17  2  0  0  0  0
 17 18  1  0  0  0  0
 18 19  2  0  0  0  0
 19 14  1  0  0  0  0
 10 20  1  0  0  0  0
 20 21  1  0  0  0  0
 21 22  1  0  0  0  0
 22 23  1  0  0  0  0
 23 24  1  0  0  0  0
 24 10  1  0  0  0  0
 22 25  1  0  0  0  0
 16 26  1  0  0  0  0
 26 27  1  0  0  0  0
 27 28  1  0  0  0  0
 28 29  1  0  0  0  0
 29 30  1  0  0  0  0
 30 17  1  0  0  0  0
 30 31  1  0  0  0  0
 29 32  2  0  0  0  0
 28 33  1  0  0  0  0
 28 34  1  0  0  0  0
 26 35  1  0  0  0  0
 35 36  1  0  0  0  0
 36 37  1  0  0  0  0
 37 38  1  0  0  0  0
 38 39  1  0  0  0  0
 39 35  1  0  0  0  0
M  END
>  <Mol_ID> (459)
2820

>  <Formula> (459)
C27H35F2N7O3

>  <MolWeight> (459)
543.6087064

>  <Cat> (459)
S7248

>  <Name> (459)
Ro3280

>  <Synonyms> (459)
Ro5203280

>  <Target> (459)
PLK

>  <Form> (459)
Free Base

>  <CAS> (459)
1062243-51-9

>  <URL> (459)
http://www.selleckchem.com/products/ro3280.html

$$$$
LM-3146 BAY 11-7085.cdx
csChFnd80/05071909292D

 17 17  0  0  0  0  0  0  0  0999 V2000
    4.9642    3.4622    0.0000 C   0  0  0  0  0  0  0  0  0  0  0  0
    4.9718    2.0875    0.0000 C   0  0  0  0  0  0  0  0  0  0  0  0
    3.7417    4.1784    0.0000 C   0  0  0  0  0  0  0  0  0  0  0  0
    3.7975    1.3898    0.0000 C   0  0  0  0  0  0  0  0  0  0  0  0
    2.5518    3.4488    0.0000 C   0  0  0  0  0  0  0  0  0  0  0  0
    2.5694    2.0570    0.0000 C   0  0  0  0  0  0  0  0  0  0  0  0
    1.3570    1.3570    0.0000 C   0  0  0  0  0  0  0  0  0  0  0  0
    0.2018    0.5648    0.0000 C   0  0  0  0  0  0  0  0  0  0  0  0
    6.1769    4.1617    0.0000 S   0  0  0  0  0  0  0  0  0  0  0  0
    7.3891    3.4612    0.0000 C   0  0  0  0  0  0  0  0  0  0  0  0
    8.6018    4.1607    0.0000 C   0  0  0  0  0  0  0  0  0  0  0  0
    9.8139    3.4602    0.0000 C   0  0  0  0  0  0  0  0  0  0  0  0
   11.0264    2.7602    0.0000 N   0  0  0  0  0  0  0  0  0  0  0  0
    5.1835    5.1551    0.0000 O   0  0  0  0  0  0  0  0  0  0  0  0
    7.1703    5.1551    0.0000 O   0  0  0  0  0  0  0  0  0  0  0  0
    0.0000    1.7206    0.0000 C   0  0  0  0  0  0  0  0  0  0  0  0
    0.9934    0.0000    0.0000 C   0  0  0  0  0  0  0  0  0  0  0  0
  1  2  2  0  0  0  0
  1  3  1  0  0  0  0
  2  4  1  0  0  0  0
  3  5  2  0  0  0  0
  4  6  2  0  0  0  0
  5  6  1  0  0  0  0
  6  7  1  0  0  0  0
  7  8  1  0  0  0  0
  1  9  1  0  0  0  0
  9 10  1  0  0  0  0
 10 11  2  0  0  0  0
 11 12  1  0  0  0  0
  9 14  2  0  0  0  0
  9 15  2  0  0  0  0
  7 16  1  0  0  0  0
  7 17  1  0  0  0  0
 12 13  3  0  0  0  0
M  END
>  <Mol_ID> (460)
2822

>  <Formula> (460)
C13H15NO2S

>  <MolWeight> (460)
249.3287

>  <Cat> (460)
S7352

>  <Name> (460)
Bay 11-7085

>  <Synonyms> (460)
Bay 11-7083

>  <Target> (460)
IB/IKK

>  <Form> (460)
Free Base

>  <CAS> (460)
196309-76-9

>  <URL> (460)
http://www.selleckchem.com/products/bay-11-7085.html

$$$$
JNK Inhibitor IX.cdx
csChFnd80/05071909292D

 24 27  0  0  0  0  0  0  0  0999 V2000
    0.0000    2.1000    0.0000 C   0  0  0  0  0  0  0  0  0  0  0  0
    0.0000    0.7000    0.0000 C   0  0  0  0  0  0  0  0  0  0  0  0
    1.2124    0.0000    0.0000 C   0  0  0  0  0  0  0  0  0  0  0  0
    2.4249    0.7000    0.0000 C   0  0  0  0  0  0  0  0  0  0  0  0
    2.4249    2.1000    0.0000 C   0  0  0  0  0  0  0  0  0  0  0  0
    1.2124    2.8000    0.0000 C   0  0  0  0  0  0  0  0  0  0  0  0
    3.7564    0.2674    0.0000 S   0  0  0  0  0  0  0  0  0  0  0  0
    4.5792    1.4000    0.0000 C   0  0  0  0  0  0  0  0  0  0  0  0
    3.7564    2.5326    0.0000 C   0  0  0  0  0  0  0  0  0  0  0  0
    4.1890    3.8641    0.0000 C   0  0  0  0  0  0  0  0  0  0  0  0
    4.6216    5.1956    0.0000 N   0  0  0  0  0  0  0  0  0  0  0  0
    5.9792    1.4000    0.0000 N   0  0  0  0  0  0  0  0  0  0  0  0
    6.6792    2.6124    0.0000 C   0  0  0  0  0  0  0  0  0  0  0  0
    8.0792    2.6124    0.0000 C   0  0  0  0  0  0  0  0  0  0  0  0
    5.9792    3.8249    0.0000 O   0  0  0  0  0  0  0  0  0  0  0  0
    8.7792    1.4000    0.0000 C   0  0  0  0  0  0  0  0  0  0  0  0
   10.1792    1.4000    0.0000 C   0  0  0  0  0  0  0  0  0  0  0  0
   10.8792    2.6124    0.0000 C   0  0  0  0  0  0  0  0  0  0  0  0
   10.1792    3.8249    0.0000 C   0  0  0  0  0  0  0  0  0  0  0  0
    8.7792    3.8249    0.0000 C   0  0  0  0  0  0  0  0  0  0  0  0
   10.8792    5.0373    0.0000 C   0  0  0  0  0  0  0  0  0  0  0  0
   10.1792    6.2497    0.0000 C   0  0  0  0  0  0  0  0  0  0  0  0
    8.7792    6.2497    0.0000 C   0  0  0  0  0  0  0  0  0  0  0  0
    8.0792    5.0373    0.0000 C   0  0  0  0  0  0  0  0  0  0  0  0
  1  2  1  0  0  0  0
  2  3  1  0  0  0  0
  3  4  1  0  0  0  0
  4  5  2  0  0  0  0
  5  6  1  0  0  0  0
  6  1  1  0  0  0  0
  4  7  1  0  0  0  0
  7  8  1  0  0  0  0
  8  9  2  0  0  0  0
  9  5  1  0  0  0  0
  9 10  1  0  0  0  0
  8 12  1  0  0  0  0
 12 13  1  0  0  0  0
 13 14  1  0  0  0  0
 13 15  2  0  0  0  0
 14 16  2  0  0  0  0
 16 17  1  0  0  0  0
 17 18  2  0  0  0  0
 18 19  1  0  0  0  0
 19 20  2  0  0  0  0
 20 14  1  0  0  0  0
 19 21  1  0  0  0  0
 21 22  2  0  0  0  0
 22 23  1  0  0  0  0
 23 24  2  0  0  0  0
 24 20  1  0  0  0  0
 10 11  3  0  0  0  0
M  END
>  <Mol_ID> (461)
2823

>  <Formula> (461)
C20H16N2OS

>  <MolWeight> (461)
332.41884

>  <Cat> (461)
S7508

>  <Name> (461)
JNK inhibitor IX

>  <Synonyms> (461)
TCS JNK 5a

>  <Target> (461)
JNK

>  <Form> (461)
Free Base

>  <CAS> (461)
312917-14-9

>  <URL> (461)
http://www.selleckchem.com/products/jnk-inhibitor-ix.html

$$$$
Cerdulatinib (PRT-062070).cdx
csChFnd80/05071909292D

 32 34  0  0  0  0  0  0  0  0999 V2000
   12.1244    3.5174    0.0000 N   0  0  0  0  0  0  0  0  0  0  0  0
   12.1244    2.1174    0.0000 C   0  0  0  0  0  0  0  0  0  0  0  0
   13.3368    1.4174    0.0000 N   0  0  0  0  0  0  0  0  0  0  0  0
   14.5492    2.1174    0.0000 C   0  0  0  0  0  0  0  0  0  0  0  0
   14.5492    3.5174    0.0000 C   0  0  0  0  0  0  0  0  0  0  0  0
   13.3368    4.2174    0.0000 C   0  0  0  0  0  0  0  0  0  0  0  0
   10.9119    1.4174    0.0000 N   0  0  0  0  0  0  0  0  0  0  0  0
    9.6995    2.1174    0.0000 C   0  0  0  0  0  0  0  0  0  0  0  0
    9.6995    3.5174    0.0000 C   0  0  0  0  0  0  0  0  0  0  0  0
    8.4871    4.2174    0.0000 C   0  0  0  0  0  0  0  0  0  0  0  0
    7.2746    3.5174    0.0000 C   0  0  0  0  0  0  0  0  0  0  0  0
    7.2746    2.1174    0.0000 C   0  0  0  0  0  0  0  0  0  0  0  0
    8.4871    1.4174    0.0000 C   0  0  0  0  0  0  0  0  0  0  0  0
    6.0622    4.2174    0.0000 N   0  0  0  0  0  0  0  0  0  0  0  0
    6.0622    5.6174    0.0000 C   0  0  0  0  0  0  0  0  0  0  0  0
    4.8497    6.3174    0.0000 C   0  0  0  0  0  0  0  0  0  0  0  0
    3.6373    5.6174    0.0000 N   0  0  0  0  0  0  0  0  0  0  0  0
    3.6373    4.2174    0.0000 C   0  0  0  0  0  0  0  0  0  0  0  0
    4.8497    3.5174    0.0000 C   0  0  0  0  0  0  0  0  0  0  0  0
    2.4249    6.3174    0.0000 S   0  0  0  0  0  0  0  0  0  0  0  0
    1.2124    5.6174    0.0000 C   0  0  0  0  0  0  0  0  0  0  0  0
    0.0000    6.3174    0.0000 C   0  0  0  0  0  0  0  0  0  0  0  0
    2.4249    7.7174    0.0000 O   0  0  0  0  0  0  0  0  0  0  0  0
    3.7772    6.6798    0.0000 O   0  0  0  0  0  0  0  0  0  0  0  0
   13.3368    5.6174    0.0000 N   0  0  0  0  0  0  0  0  0  0  0  0
   12.1244    6.3174    0.0000 C   0  0  0  0  0  0  0  0  0  0  0  0
   11.4244    7.5299    0.0000 C   0  0  0  0  0  0  0  0  0  0  0  0
   10.7244    6.3174    0.0000 C   0  0  0  0  0  0  0  0  0  0  0  0
   15.7617    4.2174    0.0000 C   0  0  0  0  0  0  0  0  0  0  0  0
   16.9741    3.5174    0.0000 N   0  0  0  0  0  0  0  0  0  0  0  0
   15.7617    5.6174    0.0000 O   0  0  0  0  0  0  0  0  0  0  0  0
    6.2315    0.0000    0.0000 Cl  0  0  0  0  0  0  0  0  0  0  0  0
  1  2  2  0  0  0  0
  2  3  1  0  0  0  0
  3  4  2  0  0  0  0
  4  5  1  0  0  0  0
  5  6  2  0  0  0  0
  6  1  1  0  0  0  0
  2  7  1  0  0  0  0
  7  8  1  0  0  0  0
  8  9  2  0  0  0  0
  9 10  1  0  0  0  0
 10 11  2  0  0  0  0
 11 12  1  0  0  0  0
 12 13  2  0  0  0  0
 13  8  1  0  0  0  0
 11 14  1  0  0  0  0
 14 15  1  0  0  0  0
 15 16  1  0  0  0  0
 16 17  1  0  0  0  0
 17 18  1  0  0  0  0
 18 19  1  0  0  0  0
 19 14  1  0  0  0  0
 17 20  1  0  0  0  0
 20 21  1  0  0  0  0
 21 22  1  0  0  0  0
 20 23  2  0  0  0  0
 20 24  2  0  0  0  0
  6 25  1  0  0  0  0
 25 26  1  0  0  0  0
 26 27  1  0  0  0  0
 27 28  1  0  0  0  0
 28 26  1  0  0  0  0
  5 29  1  0  0  0  0
 29 30  1  0  0  0  0
 29 31  2  0  0  0  0
M  END
>  <Mol_ID> (462)
2827

>  <Formula> (462)
C20H28ClN7O3S

>  <MolWeight> (462)
481.99942

>  <Cat> (462)
S7634

>  <Name> (462)
Cerdulatinib (PRT062070, PRT2070)

>  <Synonyms> (462)
N/A

>  <Target> (462)
JAK

>  <Form> (462)
Hydrochloride

>  <CAS> (462)
1369761-01-2

>  <URL> (462)
http://www.selleckchem.com/products/cerdulatinib-prt062070-prt2070.html

$$$$
CID755673.cdx
csChFnd80/05071909292D

 16 18  0  0  0  0  0  0  0  0999 V2000
    3.1331    1.7897    0.0000 C   0  0  0  0  0  0  0  0  0  0  0  0
    4.5331    1.7897    0.0000 C   0  0  0  0  0  0  0  0  0  0  0  0
    4.9657    3.1212    0.0000 C   0  0  0  0  0  0  0  0  0  0  0  0
    3.8331    3.9441    0.0000 O   0  0  0  0  0  0  0  0  0  0  0  0
    2.7005    3.1212    0.0000 C   0  0  0  0  0  0  0  0  0  0  0  0
    5.4699    0.7493    0.0000 C   0  0  0  0  0  0  0  0  0  0  0  0
    6.8393    1.0404    0.0000 C   0  0  0  0  0  0  0  0  0  0  0  0
    7.2719    2.3719    0.0000 C   0  0  0  0  0  0  0  0  0  0  0  0
    6.3351    3.4123    0.0000 C   0  0  0  0  0  0  0  0  0  0  0  0
    1.3898    3.6131    0.0000 C   0  0  0  0  0  0  0  0  0  0  0  0
    0.1879    2.8951    0.0000 N   0  0  0  0  0  0  0  0  0  0  0  0
    0.0000    1.5077    0.0000 C   0  0  0  0  0  0  0  0  0  0  0  0
    0.9675    0.4958    0.0000 C   0  0  0  0  0  0  0  0  0  0  0  0
    2.3619    0.6213    0.0000 C   0  0  0  0  0  0  0  0  0  0  0  0
    1.2643    5.0075    0.0000 O   0  0  0  0  0  0  0  0  0  0  0  0
    7.7761    0.0000    0.0000 O   0  0  0  0  0  0  0  0  0  0  0  0
  1  2  1  0  0  0  0
  2  3  2  0  0  0  0
  3  4  1  0  0  0  0
  4  5  1  0  0  0  0
  5  1  2  0  0  0  0
  2  6  1  0  0  0  0
  6  7  2  0  0  0  0
  7  8  1  0  0  0  0
  8  9  2  0  0  0  0
  9  3  1  0  0  0  0
  5 10  1  0  0  0  0
 10 11  1  0  0  0  0
 11 12  1  0  0  0  0
 12 13  1  0  0  0  0
 13 14  1  0  0  0  0
 14  1  1  0  0  0  0
 10 15  2  0  0  0  0
  7 16  1  0  0  0  0
M  END
>  <Mol_ID> (463)
2828

>  <Formula> (463)
C12H11NO3

>  <MolWeight> (463)
217.22064

>  <Cat> (463)
S7188

>  <Name> (463)
CID755673

>  <Synonyms> (463)
N/A

>  <Target> (463)
Others

>  <Form> (463)
Free Base

>  <CAS> (463)
521937-07-5

>  <URL> (463)
http://www.selleckchem.com/products/cid755673.html

$$$$
PF-06463922.cdx
csChFnd80/05071909292D

 30 33  0  0  0  0  0  0  0  0999 V2000
    4.0363    2.5698    0.0000 C   0  0  0  0  0  0  0  0  0  0  0  0
    6.7402    2.5618    0.0000 C   0  0  0  0  0  0  0  0  0  0  0  0
    7.7327    3.5492    0.0000 C   0  0  0  0  0  0  0  0  0  0  0  0
    8.0988    4.8997    0.0000 C   0  0  0  0  0  0  0  0  0  0  0  0
    7.7407    6.2531    0.0000 C   0  0  0  0  0  0  0  0  0  0  0  0
    6.7533    7.2456    0.0000 N   0  0  0  0  0  0  0  0  0  0  0  0
    5.4028    7.6117    0.0000 C   0  0  0  0  0  0  0  0  0  0  0  0
    4.0494    7.2536    0.0000 C   0  0  0  0  0  0  0  0  0  0  0  0
    3.0569    6.2662    0.0000 C   0  0  0  0  0  0  0  0  0  0  0  0
    2.6909    4.9157    0.0000 C   0  0  2  0  0  0  0  0  0  0  0  0
    3.0489    3.5623    0.0000 O   0  0  0  0  0  0  0  0  0  0  0  0
    5.4071    9.0068    0.0000 O   0  0  0  0  0  0  0  0  0  0  0  0
    3.6905    8.6069    0.0000 C   0  0  0  0  0  0  0  0  0  0  0  0
    2.3392    8.9727    0.0000 C   0  0  0  0  0  0  0  0  0  0  0  0
    1.3467    7.9853    0.0000 C   0  0  0  0  0  0  0  0  0  0  0  0
    1.7055    6.6321    0.0000 C   0  0  0  0  0  0  0  0  0  0  0  0
    0.0000    8.3498    0.0000 F   0  0  0  0  0  0  0  0  0  0  0  0
    7.4542    8.4519    0.0000 C   0  0  0  0  0  0  0  0  0  0  0  0
    1.2957    4.9200    0.0000 C   0  0  0  0  0  0  0  0  0  0  0  0
    8.9040    2.7837    0.0000 C   0  0  0  0  0  0  0  0  0  0  0  0
    9.9939    3.6611    0.0000 N   0  0  0  0  0  0  0  0  0  0  0  0
    9.4963    4.8997    0.0000 N   0  0  0  0  0  0  0  0  0  0  0  0
    4.0363    1.0402    0.0000 C   0  0  0  0  0  0  0  0  0  0  0  0
    5.3609    0.2755    0.0000 N   0  0  0  0  0  0  0  0  0  0  0  0
    6.6856    1.0402    0.0000 C   0  0  0  0  0  0  0  0  0  0  0  0
    5.3609    3.3346    0.0000 C   0  0  0  0  0  0  0  0  0  0  0  0
    2.7144    0.2770    0.0000 N   0  0  0  0  0  0  0  0  0  0  0  0
   11.3438    3.3086    0.0000 C   0  0  0  0  0  0  0  0  0  0  0  0
    8.9730    1.3903    0.0000 C   0  0  0  0  0  0  0  0  0  0  0  0
    9.0410    0.0000    0.0000 N   0  0  0  0  0  0  0  0  0  0  0  0
  2  3  1  0  0  0  0
  3  4  1  0  0  0  0
  4  5  1  0  0  0  0
  5  6  1  0  0  0  0
  6  7  1  0  0  0  0
  7  8  1  0  0  0  0
  8  9  2  0  0  0  0
  9 10  1  0  0  0  0
 10 11  1  0  0  0  0
  1 11  1  0  0  0  0
  7 12  2  0  0  0  0
  8 13  1  0  0  0  0
 13 14  2  0  0  0  0
 14 15  1  0  0  0  0
 15 16  2  0  0  0  0
 16  9  1  0  0  0  0
 15 17  1  0  0  0  0
  6 18  1  0  0  0  0
 10 19  1  6  0  0  0
  3 20  2  0  0  0  0
 20 21  1  0  0  0  0
 21 22  1  0  0  0  0
 22  4  2  0  0  0  0
  1 23  2  0  0  0  0
 23 24  1  0  0  0  0
 24 25  2  0  0  0  0
 25  2  1  0  0  0  0
  2 26  2  0  0  0  0
 26  1  1  0  0  0  0
 23 27  1  0  0  0  0
 21 28  1  0  0  0  0
 20 29  1  0  0  0  0
 29 30  3  0  0  0  0
M  END
>  <Mol_ID> (464)
2835

>  <Formula> (464)
C21H19FN6O2

>  <MolWeight> (464)
406.4129632

>  <Cat> (464)
S7536

>  <Name> (464)
PF-06463922

>  <Synonyms> (464)
N/A

>  <Target> (464)
ALK

>  <Form> (464)
Free Base

>  <CAS> (464)
1454846-35-5

>  <URL> (464)
http://www.selleckchem.com/products/pf-06463922.html

$$$$
S7668-Picropodophyllin (PPP).cdx
csChFnd80/05071909292D

 32 36  0  0  0  0  0  0  0  0999 V2000
    2.1544    8.4000    0.0000 C   0  0  0  0  0  0  0  0  0  0  0  0
    2.1544    7.0000    0.0000 C   0  0  0  0  0  0  0  0  0  0  0  0
    3.3668    6.3000    0.0000 C   0  0  0  0  0  0  0  0  0  0  0  0
    4.5792    7.0000    0.0000 C   0  0  0  0  0  0  0  0  0  0  0  0
    4.5792    8.4000    0.0000 C   0  0  0  0  0  0  0  0  0  0  0  0
    3.3668    9.1000    0.0000 C   0  0  0  0  0  0  0  0  0  0  0  0
    0.8229    8.8326    0.0000 O   0  0  0  0  0  0  0  0  0  0  0  0
    0.0000    7.7000    0.0000 C   0  0  0  0  0  0  0  0  0  0  0  0
    0.8229    6.5674    0.0000 O   0  0  0  0  0  0  0  0  0  0  0  0
    5.7917    6.3000    0.0000 C   0  0  2  0  0  0  0  0  0  0  0  0
    7.0041    7.0000    0.0000 C   0  0  1  0  0  0  0  0  0  0  0  0
    7.0041    8.4000    0.0000 C   0  0  1  0  0  0  0  0  0  0  0  0
    5.7917    9.1000    0.0000 C   0  0  1  0  0  0  0  0  0  0  0  0
    8.3356    6.5674    0.0000 C   0  0  0  0  0  0  0  0  0  0  0  0
    9.1585    7.7000    0.0000 O   0  0  0  0  0  0  0  0  0  0  0  0
    8.3356    8.8326    0.0000 C   0  0  0  0  0  0  0  0  0  0  0  0
    5.7917    4.9000    0.0000 C   0  0  0  0  0  0  0  0  0  0  0  0
    5.7917   10.5000    0.0000 O   0  0  0  0  0  0  0  0  0  0  0  0
    4.5792    4.2000    0.0000 C   0  0  0  0  0  0  0  0  0  0  0  0
    4.5792    2.8000    0.0000 C   0  0  0  0  0  0  0  0  0  0  0  0
    5.7917    2.1000    0.0000 C   0  0  0  0  0  0  0  0  0  0  0  0
    7.0041    2.8000    0.0000 C   0  0  0  0  0  0  0  0  0  0  0  0
    7.0041    4.2000    0.0000 C   0  0  0  0  0  0  0  0  0  0  0  0
    8.2166    2.1000    0.0000 O   0  0  0  0  0  0  0  0  0  0  0  0
    9.4290    2.8000    0.0000 C   0  0  0  0  0  0  0  0  0  0  0  0
    5.7917    0.7000    0.0000 O   0  0  0  0  0  0  0  0  0  0  0  0
    7.0041    0.0000    0.0000 C   0  0  0  0  0  0  0  0  0  0  0  0
    3.3668    2.1000    0.0000 O   0  0  0  0  0  0  0  0  0  0  0  0
    2.1544    2.8000    0.0000 C   0  0  0  0  0  0  0  0  0  0  0  0
    8.7682    5.2359    0.0000 O   0  0  0  0  0  0  0  0  0  0  0  0
    7.1505    9.7923    0.0000 H   0  0  0  0  0  0  0  0  0  0  0  0
    7.1505    5.6077    0.0000 H   0  0  0  0  0  0  0  0  0  0  0  0
  1  2  2  0  0  0  0
  2  3  1  0  0  0  0
  3  4  2  0  0  0  0
  4  5  1  0  0  0  0
  5  6  2  0  0  0  0
  6  1  1  0  0  0  0
  1  7  1  0  0  0  0
  7  8  1  0  0  0  0
  8  9  1  0  0  0  0
  9  2  1  0  0  0  0
  4 10  1  0  0  0  0
 10 11  1  0  0  0  0
 11 12  1  0  0  0  0
 12 13  1  0  0  0  0
 13  5  1  0  0  0  0
 11 14  1  0  0  0  0
 14 15  1  0  0  0  0
 15 16  1  0  0  0  0
 16 12  1  0  0  0  0
 10 17  1  6  0  0  0
 13 18  1  6  0  0  0
 17 19  2  0  0  0  0
 19 20  1  0  0  0  0
 20 21  2  0  0  0  0
 21 22  1  0  0  0  0
 22 23  2  0  0  0  0
 23 17  1  0  0  0  0
 22 24  1  0  0  0  0
 24 25  1  0  0  0  0
 21 26  1  0  0  0  0
 26 27  1  0  0  0  0
 20 28  1  0  0  0  0
 28 29  1  0  0  0  0
 14 30  2  0  0  0  0
 12 31  1  6  0  0  0
 11 32  1  6  0  0  0
M  END
>  <Mol_ID> (465)
2848

>  <Formula> (465)
C22H22O8

>  <MolWeight> (465)
414.40528

>  <Cat> (465)
S7668

>  <Name> (465)
Picropodophyllin (PPP)

>  <Synonyms> (465)
AXL1717

>  <Target> (465)
IGF-1R

>  <Form> (465)
Free Base

>  <CAS> (465)
477-47-4

>  <URL> (465)
http://www.selleckchem.com/products/picropodophyllin-ppp.html

$$$$
Reversine.cdx
csChFnd80/05071909292D

 29 33  0  0  0  0  0  0  0  0999 V2000
    8.4870    2.1000    0.0000 N   0  0  0  0  0  0  0  0  0  0  0  0
    8.4870    0.7000    0.0000 C   0  0  0  0  0  0  0  0  0  0  0  0
    9.6995    0.0000    0.0000 N   0  0  0  0  0  0  0  0  0  0  0  0
   10.9119    0.7000    0.0000 C   0  0  0  0  0  0  0  0  0  0  0  0
   10.9119    2.1000    0.0000 C   0  0  0  0  0  0  0  0  0  0  0  0
    9.6995    2.8000    0.0000 C   0  0  0  0  0  0  0  0  0  0  0  0
   12.2434    0.2674    0.0000 N   0  0  0  0  0  0  0  0  0  0  0  0
   13.0663    1.4000    0.0000 C   0  0  0  0  0  0  0  0  0  0  0  0
   12.2434    2.5326    0.0000 N   0  0  0  0  0  0  0  0  0  0  0  0
    9.6995    4.2000    0.0000 N   0  0  0  0  0  0  0  0  0  0  0  0
    8.4870    4.9000    0.0000 C   0  0  0  0  0  0  0  0  0  0  0  0
    7.2746    0.0000    0.0000 N   0  0  0  0  0  0  0  0  0  0  0  0
    6.0622    0.7000    0.0000 C   0  0  0  0  0  0  0  0  0  0  0  0
    6.0622    2.1000    0.0000 C   0  0  0  0  0  0  0  0  0  0  0  0
    4.8497    2.8000    0.0000 C   0  0  0  0  0  0  0  0  0  0  0  0
    3.6373    2.1000    0.0000 C   0  0  0  0  0  0  0  0  0  0  0  0
    3.6373    0.7000    0.0000 C   0  0  0  0  0  0  0  0  0  0  0  0
    4.8497    0.0000    0.0000 C   0  0  0  0  0  0  0  0  0  0  0  0
    2.4249    2.8000    0.0000 N   0  0  0  0  0  0  0  0  0  0  0  0
    2.4249    4.2000    0.0000 C   0  0  0  0  0  0  0  0  0  0  0  0
    1.2124    4.9000    0.0000 C   0  0  0  0  0  0  0  0  0  0  0  0
    0.0000    4.2000    0.0000 O   0  0  0  0  0  0  0  0  0  0  0  0
    0.0000    2.8000    0.0000 C   0  0  0  0  0  0  0  0  0  0  0  0
    1.2124    2.1000    0.0000 C   0  0  0  0  0  0  0  0  0  0  0  0
    8.4870    6.3000    0.0000 C   0  0  0  0  0  0  0  0  0  0  0  0
    7.2746    7.0000    0.0000 C   0  0  0  0  0  0  0  0  0  0  0  0
    6.0622    6.3000    0.0000 C   0  0  0  0  0  0  0  0  0  0  0  0
    6.0622    4.9000    0.0000 C   0  0  0  0  0  0  0  0  0  0  0  0
    7.2746    4.2000    0.0000 C   0  0  0  0  0  0  0  0  0  0  0  0
  1  2  2  0  0  0  0
  2  3  1  0  0  0  0
  3  4  2  0  0  0  0
  4  5  1  0  0  0  0
  5  6  2  0  0  0  0
  6  1  1  0  0  0  0
  4  7  1  0  0  0  0
  7  8  1  0  0  0  0
  8  9  2  0  0  0  0
  9  5  1  0  0  0  0
  6 10  1  0  0  0  0
 10 11  1  0  0  0  0
  2 12  1  0  0  0  0
 12 13  1  0  0  0  0
 13 14  2  0  0  0  0
 14 15  1  0  0  0  0
 15 16  2  0  0  0  0
 16 17  1  0  0  0  0
 17 18  2  0  0  0  0
 18 13  1  0  0  0  0
 16 19  1  0  0  0  0
 19 20  1  0  0  0  0
 20 21  1  0  0  0  0
 21 22  1  0  0  0  0
 22 23  1  0  0  0  0
 23 24  1  0  0  0  0
 24 19  1  0  0  0  0
 11 25  1  0  0  0  0
 25 26  1  0  0  0  0
 26 27  1  0  0  0  0
 27 28  1  0  0  0  0
 28 29  1  0  0  0  0
 29 11  1  0  0  0  0
M  END
>  <Mol_ID> (466)
2850

>  <Formula> (466)
C21H27N7O

>  <MolWeight> (466)
393.48538

>  <Cat> (466)
S7588

>  <Name> (466)
Reversine

>  <Synonyms> (466)
N/A

>  <Target> (466)
Adenosine Receptor

>  <Form> (466)
Free Base

>  <CAS> (466)
656820-32-5

>  <URL> (466)
http://www.selleckchem.com/products/reversine.html

$$$$
SU 9516.cdx
csChFnd80/05071909292D

 18 20  0  0  0  0  0  0  0  0999 V2000
    2.4249    2.1000    0.0000 C   0  0  0  0  0  0  0  0  0  0  0  0
    2.4249    0.7000    0.0000 C   0  0  0  0  0  0  0  0  0  0  0  0
    3.6373    0.0000    0.0000 C   0  0  0  0  0  0  0  0  0  0  0  0
    4.8497    0.7000    0.0000 C   0  0  0  0  0  0  0  0  0  0  0  0
    4.8497    2.1000    0.0000 C   0  0  0  0  0  0  0  0  0  0  0  0
    3.6373    2.8000    0.0000 C   0  0  0  0  0  0  0  0  0  0  0  0
    6.1812    0.2674    0.0000 N   0  0  0  0  0  0  0  0  0  0  0  0
    7.0041    1.4000    0.0000 C   0  0  0  0  0  0  0  0  0  0  0  0
    6.1812    2.5326    0.0000 C   0  0  0  0  0  0  0  0  0  0  0  0
    6.6138    3.8641    0.0000 C   0  0  0  0  0  0  0  0  0  0  0  0
    7.9832    4.1552    0.0000 C   0  0  0  0  0  0  0  0  0  0  0  0
    9.0237    3.2184    0.0000 N   0  0  0  0  0  0  0  0  0  0  0  0
   10.2361    3.9184    0.0000 C   0  0  0  0  0  0  0  0  0  0  0  0
    9.9450    5.2878    0.0000 N   0  0  0  0  0  0  0  0  0  0  0  0
    8.5527    5.4341    0.0000 C   0  0  0  0  0  0  0  0  0  0  0  0
    8.4041    1.4000    0.0000 O   0  0  0  0  0  0  0  0  0  0  0  0
    1.2124    2.8000    0.0000 O   0  0  0  0  0  0  0  0  0  0  0  0
    0.0000    2.1000    0.0000 C   0  0  0  0  0  0  0  0  0  0  0  0
  1  2  2  0  0  0  0
  2  3  1  0  0  0  0
  3  4  2  0  0  0  0
  4  5  1  0  0  0  0
  5  6  2  0  0  0  0
  6  1  1  0  0  0  0
  4  7  1  0  0  0  0
  7  8  1  0  0  0  0
  8  9  1  0  0  0  0
  9  5  1  0  0  0  0
  9 10  2  0  0  0  0
 10 11  1  0  0  0  0
 11 12  1  0  0  0  0
 12 13  1  0  0  0  0
 13 14  2  0  0  0  0
 14 15  1  0  0  0  0
 15 11  2  0  0  0  0
  8 16  2  0  0  0  0
  1 17  1  0  0  0  0
 17 18  1  0  0  0  0
M  END
>  <Mol_ID> (467)
2852

>  <Formula> (467)
C13H11N3O2

>  <MolWeight> (467)
241.24534

>  <Cat> (467)
S7636

>  <Name> (467)
SU9516

>  <Synonyms> (467)
N/A

>  <Target> (467)
CDK

>  <Form> (467)
Free Base

>  <CAS> (467)
377090-84-1

>  <URL> (467)
http://www.selleckchem.com/products/su9516.html

$$$$
AT13148.cdx
csChFnd80/05071909292D

 22 24  0  0  0  0  0  0  0  0999 V2000
    2.8579    5.8840    0.0000 C   0  0  0  0  0  0  0  0  0  0  0  0
    2.1911    4.6530    0.0000 C   0  0  0  0  0  0  0  0  0  0  0  0
    2.9238    3.4601    0.0000 C   0  0  0  0  0  0  0  0  0  0  0  0
    4.3233    3.4982    0.0000 C   0  0  0  0  0  0  0  0  0  0  0  0
    4.9901    4.7292    0.0000 C   0  0  0  0  0  0  0  0  0  0  0  0
    4.2574    5.9221    0.0000 C   0  0  0  0  0  0  0  0  0  0  0  0
    2.2571    2.2290    0.0000 C   0  0  0  0  0  0  0  0  0  0  0  0
    0.8692    2.0449    0.0000 C   0  0  0  0  0  0  0  0  0  0  0  0
    0.6148    0.6668    0.0000 N   0  0  0  0  0  0  0  0  0  0  0  0
    1.8458    0.0000    0.0000 N   0  0  0  0  0  0  0  0  0  0  0  0
    2.8611    0.9660    0.0000 C   0  0  0  0  0  0  0  0  0  0  0  0
    4.9241    7.1532    0.0000 C   0  0  1  0  0  0  0  0  0  0  0  0
    3.6931    7.8199    0.0000 C   0  0  0  0  0  0  0  0  0  0  0  0
    5.5909    8.3842    0.0000 O   0  0  0  0  0  0  0  0  0  0  0  0
    6.1551    6.4864    0.0000 C   0  0  0  0  0  0  0  0  0  0  0  0
    7.3481    7.2191    0.0000 N   0  0  0  0  0  0  0  0  0  0  0  0
    3.6550    9.2194    0.0000 C   0  0  0  0  0  0  0  0  0  0  0  0
    2.4240    9.8862    0.0000 C   0  0  0  0  0  0  0  0  0  0  0  0
    1.2310    9.1534    0.0000 C   0  0  0  0  0  0  0  0  0  0  0  0
    1.2691    7.7540    0.0000 C   0  0  0  0  0  0  0  0  0  0  0  0
    2.5001    7.0872    0.0000 C   0  0  0  0  0  0  0  0  0  0  0  0
    0.0000    9.8202    0.0000 Cl  0  0  0  0  0  0  0  0  0  0  0  0
  1  2  2  0  0  0  0
  2  3  1  0  0  0  0
  3  4  2  0  0  0  0
  4  5  1  0  0  0  0
  5  6  2  0  0  0  0
  6  1  1  0  0  0  0
  3  7  1  0  0  0  0
  7  8  2  0  0  0  0
  8  9  1  0  0  0  0
  9 10  1  0  0  0  0
 10 11  2  0  0  0  0
 11  7  1  0  0  0  0
  6 12  1  0  0  0  0
 12 13  1  0  0  0  0
 12 14  1  1  0  0  0
 12 15  1  6  0  0  0
 15 16  1  0  0  0  0
 13 17  2  0  0  0  0
 17 18  1  0  0  0  0
 18 19  2  0  0  0  0
 19 20  1  0  0  0  0
 20 21  2  0  0  0  0
 21 13  1  0  0  0  0
 19 22  1  0  0  0  0
M  END
>  <Mol_ID> (468)
2854

>  <Formula> (468)
C17H16ClN3O

>  <MolWeight> (468)
313.78144

>  <Cat> (468)
S7563

>  <Name> (468)
AT13148

>  <Synonyms> (468)
N/A

>  <Target> (468)
Akt

>  <Form> (468)
Free Base

>  <CAS> (468)
1056901-62-2

>  <URL> (468)
http://www.selleckchem.com/products/at13148.html

$$$$
PF-431396.cdx
csChFnd80/05071909292D

 35 38  0  0  0  0  0  0  0  0999 V2000
    1.1710    4.8282    0.0000 C   0  0  0  0  0  0  0  0  0  0  0  0
    1.1710    3.4282    0.0000 C   0  0  0  0  0  0  0  0  0  0  0  0
    2.3834    2.7282    0.0000 C   0  0  0  0  0  0  0  0  0  0  0  0
    3.5958    3.4282    0.0000 C   0  0  0  0  0  0  0  0  0  0  0  0
    3.5958    4.8282    0.0000 C   0  0  0  0  0  0  0  0  0  0  0  0
    2.3834    5.5282    0.0000 C   0  0  0  0  0  0  0  0  0  0  0  0
    0.1306    2.4914    0.0000 C   0  0  0  0  0  0  0  0  0  0  0  0
    0.7000    1.2124    0.0000 C   0  0  0  0  0  0  0  0  0  0  0  0
    2.0923    1.3588    0.0000 N   0  0  0  0  0  0  0  0  0  0  0  0
    0.0000    0.0000    0.0000 O   0  0  0  0  0  0  0  0  0  0  0  0
    2.3834    6.9282    0.0000 N   0  0  0  0  0  0  0  0  0  0  0  0
    3.5958    7.6282    0.0000 C   0  0  0  0  0  0  0  0  0  0  0  0
    4.8083    6.9282    0.0000 N   0  0  0  0  0  0  0  0  0  0  0  0
    6.0207    7.6282    0.0000 C   0  0  0  0  0  0  0  0  0  0  0  0
    6.0207    9.0282    0.0000 C   0  0  0  0  0  0  0  0  0  0  0  0
    4.8083    9.7282    0.0000 C   0  0  0  0  0  0  0  0  0  0  0  0
    3.5958    9.0282    0.0000 N   0  0  0  0  0  0  0  0  0  0  0  0
    7.2332    9.7282    0.0000 C   0  0  0  0  0  0  0  0  0  0  0  0
    7.9332    8.5157    0.0000 F   0  0  0  0  0  0  0  0  0  0  0  0
    6.5332   10.9406    0.0000 F   0  0  0  0  0  0  0  0  0  0  0  0
    8.4456   10.4282    0.0000 F   0  0  0  0  0  0  0  0  0  0  0  0
    7.2332    6.9282    0.0000 N   0  0  0  0  0  0  0  0  0  0  0  0
    7.2332    5.5282    0.0000 C   0  0  0  0  0  0  0  0  0  0  0  0
    8.4456    4.8282    0.0000 C   0  0  0  0  0  0  0  0  0  0  0  0
    8.4456    3.4282    0.0000 C   0  0  0  0  0  0  0  0  0  0  0  0
    9.6580    2.7282    0.0000 C   0  0  0  0  0  0  0  0  0  0  0  0
   10.8705    3.4282    0.0000 C   0  0  0  0  0  0  0  0  0  0  0  0
   10.8705    4.8282    0.0000 C   0  0  0  0  0  0  0  0  0  0  0  0
    9.6580    5.5282    0.0000 C   0  0  0  0  0  0  0  0  0  0  0  0
    9.6580    6.9282    0.0000 N   0  0  0  0  0  0  0  0  0  0  0  0
    8.4456    7.6282    0.0000 C   0  0  0  0  0  0  0  0  0  0  0  0
   10.8705    7.6282    0.0000 S   0  0  0  0  0  0  0  0  0  0  0  0
   12.0829    8.3282    0.0000 C   0  0  0  0  0  0  0  0  0  0  0  0
   10.1705    8.8406    0.0000 O   0  0  0  0  0  0  0  0  0  0  0  0
   11.5705    6.4157    0.0000 O   0  0  0  0  0  0  0  0  0  0  0  0
  1  2  2  0  0  0  0
  2  3  1  0  0  0  0
  3  4  2  0  0  0  0
  4  5  1  0  0  0  0
  5  6  2  0  0  0  0
  6  1  1  0  0  0  0
  2  7  1  0  0  0  0
  7  8  1  0  0  0  0
  8  9  1  0  0  0  0
  9  3  1  0  0  0  0
  8 10  2  0  0  0  0
  6 11  1  0  0  0  0
 11 12  1  0  0  0  0
 12 13  2  0  0  0  0
 13 14  1  0  0  0  0
 14 15  2  0  0  0  0
 15 16  1  0  0  0  0
 16 17  2  0  0  0  0
 17 12  1  0  0  0  0
 15 18  1  0  0  0  0
 18 19  1  0  0  0  0
 18 20  1  0  0  0  0
 18 21  1  0  0  0  0
 14 22  1  0  0  0  0
 22 23  1  0  0  0  0
 23 24  1  0  0  0  0
 24 25  2  0  0  0  0
 25 26  1  0  0  0  0
 26 27  2  0  0  0  0
 27 28  1  0  0  0  0
 28 29  2  0  0  0  0
 29 24  1  0  0  0  0
 29 30  1  0  0  0  0
 30 31  1  0  0  0  0
 30 32  1  0  0  0  0
 32 33  1  0  0  0  0
 32 34  2  0  0  0  0
 32 35  2  0  0  0  0
M  END
>  <Mol_ID> (469)
2856

>  <Formula> (469)
C22H21F3N6O3S

>  <MolWeight> (469)
506.5007496

>  <Cat> (469)
S7644

>  <Name> (469)
PF-431396

>  <Synonyms> (469)
N/A

>  <Target> (469)
FAK

>  <Form> (469)
Free Base

>  <CAS> (469)
717906-29-1

>  <URL> (469)
http://www.selleckchem.com/products/pf-431396.html

$$$$
PND-1186 (VS-471).cdx
csChFnd80/05071909292D

 36 39  0  0  0  0  0  0  0  0999 V2000
    4.2000    1.2124    0.0000 C   0  0  0  0  0  0  0  0  0  0  0  0
    2.8000    1.2124    0.0000 C   0  0  0  0  0  0  0  0  0  0  0  0
    2.1000    2.4249    0.0000 C   0  0  0  0  0  0  0  0  0  0  0  0
    2.8000    3.6373    0.0000 C   0  0  0  0  0  0  0  0  0  0  0  0
    4.2000    3.6373    0.0000 C   0  0  0  0  0  0  0  0  0  0  0  0
    4.9000    2.4249    0.0000 C   0  0  0  0  0  0  0  0  0  0  0  0
    4.9000    4.8497    0.0000 N   0  0  0  0  0  0  0  0  0  0  0  0
    2.1000    4.8497    0.0000 C   0  0  0  0  0  0  0  0  0  0  0  0
    0.7000    4.8497    0.0000 N   0  0  0  0  0  0  0  0  0  0  0  0
    0.0000    6.0622    0.0000 C   0  0  0  0  0  0  0  0  0  0  0  0
    2.8000    6.0622    0.0000 O   0  0  0  0  0  0  0  0  0  0  0  0
    6.3000    4.8497    0.0000 C   0  0  0  0  0  0  0  0  0  0  0  0
    7.0000    3.6373    0.0000 C   0  0  0  0  0  0  0  0  0  0  0  0
    8.4000    3.6373    0.0000 C   0  0  0  0  0  0  0  0  0  0  0  0
    9.1000    4.8497    0.0000 N   0  0  0  0  0  0  0  0  0  0  0  0
    8.4000    6.0622    0.0000 C   0  0  0  0  0  0  0  0  0  0  0  0
    7.0000    6.0622    0.0000 C   0  0  0  0  0  0  0  0  0  0  0  0
    6.3000    7.2746    0.0000 C   0  0  0  0  0  0  0  0  0  0  0  0
    5.6000    8.4870    0.0000 F   0  0  0  0  0  0  0  0  0  0  0  0
    7.5124    7.9746    0.0000 F   0  0  0  0  0  0  0  0  0  0  0  0
    5.0876    6.5746    0.0000 F   0  0  0  0  0  0  0  0  0  0  0  0
    9.1000    2.4249    0.0000 N   0  0  0  0  0  0  0  0  0  0  0  0
   10.5000    2.4249    0.0000 C   0  0  0  0  0  0  0  0  0  0  0  0
   11.2000    3.6373    0.0000 C   0  0  0  0  0  0  0  0  0  0  0  0
   12.6000    3.6373    0.0000 C   0  0  0  0  0  0  0  0  0  0  0  0
   13.3000    2.4249    0.0000 C   0  0  0  0  0  0  0  0  0  0  0  0
   12.6000    1.2124    0.0000 C   0  0  0  0  0  0  0  0  0  0  0  0
   11.2000    1.2124    0.0000 C   0  0  0  0  0  0  0  0  0  0  0  0
   10.5000    0.0000    0.0000 O   0  0  0  0  0  0  0  0  0  0  0  0
    9.1000    0.0000    0.0000 C   0  0  0  0  0  0  0  0  0  0  0  0
   14.7000    2.4249    0.0000 N   0  0  0  0  0  0  0  0  0  0  0  0
   15.4000    3.6373    0.0000 C   0  0  0  0  0  0  0  0  0  0  0  0
   16.8000    3.6373    0.0000 C   0  0  0  0  0  0  0  0  0  0  0  0
   17.5000    2.4249    0.0000 O   0  0  0  0  0  0  0  0  0  0  0  0
   16.8000    1.2124    0.0000 C   0  0  0  0  0  0  0  0  0  0  0  0
   15.4000    1.2124    0.0000 C   0  0  0  0  0  0  0  0  0  0  0  0
  1  2  2  0  0  0  0
  2  3  1  0  0  0  0
  3  4  2  0  0  0  0
  4  5  1  0  0  0  0
  5  6  2  0  0  0  0
  6  1  1  0  0  0  0
  5  7  1  0  0  0  0
  4  8  1  0  0  0  0
  8  9  1  0  0  0  0
  9 10  1  0  0  0  0
  8 11  2  0  0  0  0
  7 12  1  0  0  0  0
 12 13  2  0  0  0  0
 13 14  1  0  0  0  0
 14 15  2  0  0  0  0
 15 16  1  0  0  0  0
 16 17  2  0  0  0  0
 17 12  1  0  0  0  0
 17 18  1  0  0  0  0
 18 19  1  0  0  0  0
 18 20  1  0  0  0  0
 18 21  1  0  0  0  0
 14 22  1  0  0  0  0
 22 23  1  0  0  0  0
 23 24  2  0  0  0  0
 24 25  1  0  0  0  0
 25 26  2  0  0  0  0
 26 27  1  0  0  0  0
 27 28  2  0  0  0  0
 28 23  1  0  0  0  0
 28 29  1  0  0  0  0
 29 30  1  0  0  0  0
 26 31  1  0  0  0  0
 31 32  1  0  0  0  0
 32 33  1  0  0  0  0
 33 34  1  0  0  0  0
 34 35  1  0  0  0  0
 35 36  1  0  0  0  0
 36 31  1  0  0  0  0
M  END
>  <Mol_ID> (470)
2858

>  <Formula> (470)
C25H26F3N5O3

>  <MolWeight> (470)
501.5008496

>  <Cat> (470)
S7653

>  <Name> (470)
PND-1186 (VS-4718)

>  <Synonyms> (470)
SR-2156

>  <Target> (470)
FAK

>  <Form> (470)
Free Base

>  <CAS> (470)
1061353-68-1

>  <URL> (470)
http://www.selleckchem.com/products/pnd-1186-vs-4718.html

$$$$
Defactinib.cdx
csChFnd80/05071909292D

 35 37  0  0  0  0  0  0  0  0999 V2000
    7.2746    4.2000    0.0000 C   0  0  0  0  0  0  0  0  0  0  0  0
    7.2746    2.8000    0.0000 C   0  0  0  0  0  0  0  0  0  0  0  0
    8.4870    2.1000    0.0000 N   0  0  0  0  0  0  0  0  0  0  0  0
    9.6995    2.8000    0.0000 C   0  0  0  0  0  0  0  0  0  0  0  0
    9.6995    4.2000    0.0000 N   0  0  0  0  0  0  0  0  0  0  0  0
    8.4870    4.9000    0.0000 C   0  0  0  0  0  0  0  0  0  0  0  0
    6.0622    2.1000    0.0000 N   0  0  0  0  0  0  0  0  0  0  0  0
    6.0622    4.9000    0.0000 C   0  0  0  0  0  0  0  0  0  0  0  0
    4.8497    4.2000    0.0000 F   0  0  0  0  0  0  0  0  0  0  0  0
    6.0622    6.3000    0.0000 F   0  0  0  0  0  0  0  0  0  0  0  0
    7.2746    5.6000    0.0000 F   0  0  0  0  0  0  0  0  0  0  0  0
   10.9119    2.1000    0.0000 N   0  0  0  0  0  0  0  0  0  0  0  0
   12.1244    2.8000    0.0000 C   0  0  0  0  0  0  0  0  0  0  0  0
   13.3368    2.1000    0.0000 C   0  0  0  0  0  0  0  0  0  0  0  0
   14.5492    2.8000    0.0000 C   0  0  0  0  0  0  0  0  0  0  0  0
   14.5492    4.2000    0.0000 C   0  0  0  0  0  0  0  0  0  0  0  0
   13.3368    4.9000    0.0000 C   0  0  0  0  0  0  0  0  0  0  0  0
   12.1244    4.2000    0.0000 C   0  0  0  0  0  0  0  0  0  0  0  0
   15.7617    4.9000    0.0000 C   0  0  0  0  0  0  0  0  0  0  0  0
   16.9741    4.2000    0.0000 N   0  0  0  0  0  0  0  0  0  0  0  0
   15.7617    6.3000    0.0000 O   0  0  0  0  0  0  0  0  0  0  0  0
   18.1865    4.9000    0.0000 C   0  0  0  0  0  0  0  0  0  0  0  0
    4.8497    2.8000    0.0000 C   0  0  0  0  0  0  0  0  0  0  0  0
    3.6373    2.1000    0.0000 C   0  0  0  0  0  0  0  0  0  0  0  0
    2.4249    2.8000    0.0000 C   0  0  0  0  0  0  0  0  0  0  0  0
    1.2124    2.1000    0.0000 N   0  0  0  0  0  0  0  0  0  0  0  0
    1.2124    0.7000    0.0000 C   0  0  0  0  0  0  0  0  0  0  0  0
    2.4249    0.0000    0.0000 C   0  0  0  0  0  0  0  0  0  0  0  0
    3.6373    0.7000    0.0000 N   0  0  0  0  0  0  0  0  0  0  0  0
    2.4249    4.2000    0.0000 N   0  0  0  0  0  0  0  0  0  0  0  0
    1.2124    4.9000    0.0000 S   0  0  0  0  0  0  0  0  0  0  0  0
    3.6373    4.9000    0.0000 C   0  0  0  0  0  0  0  0  0  0  0  0
    0.0000    4.2000    0.0000 C   0  0  0  0  0  0  0  0  0  0  0  0
    1.2124    6.3000    0.0000 O   0  0  0  0  0  0  0  0  0  0  0  0
    1.2124    3.5000    0.0000 O   0  0  0  0  0  0  0  0  0  0  0  0
  1  2  2  0  0  0  0
  2  3  1  0  0  0  0
  3  4  2  0  0  0  0
  4  5  1  0  0  0  0
  5  6  2  0  0  0  0
  6  1  1  0  0  0  0
  2  7  1  0  0  0  0
  1  8  1  0  0  0  0
  8  9  1  0  0  0  0
  8 10  1  0  0  0  0
  8 11  1  0  0  0  0
  4 12  1  0  0  0  0
 12 13  1  0  0  0  0
 13 14  2  0  0  0  0
 14 15  1  0  0  0  0
 15 16  2  0  0  0  0
 16 17  1  0  0  0  0
 17 18  2  0  0  0  0
 18 13  1  0  0  0  0
 16 19  1  0  0  0  0
 19 20  1  0  0  0  0
 19 21  2  0  0  0  0
 20 22  1  0  0  0  0
  7 23  1  0  0  0  0
 23 24  1  0  0  0  0
 24 25  2  0  0  0  0
 25 26  1  0  0  0  0
 26 27  2  0  0  0  0
 27 28  1  0  0  0  0
 28 29  2  0  0  0  0
 29 24  1  0  0  0  0
 25 30  1  0  0  0  0
 30 31  1  0  0  0  0
 30 32  1  0  0  0  0
 31 33  1  0  0  0  0
 31 34  2  0  0  0  0
 31 35  2  0  0  0  0
M  END
>  <Mol_ID> (471)
2859

>  <Formula> (471)
C20H21F3N8O3S

>  <MolWeight> (471)
510.4927496

>  <Cat> (471)
S7654

>  <Name> (471)
Defactinib (VS-6063, PF-04554878)

>  <Synonyms> (471)
VS-6063, PF-04554878

>  <Target> (471)
FAK

>  <Form> (471)
Free Base

>  <CAS> (471)
1073154-85-4

>  <URL> (471)
http://www.selleckchem.com/products/defactinib.html

$$$$
GSK2578215A.cdx
csChFnd80/05071909292D

 30 33  0  0  0  0  0  0  0  0999 V2000
    0.7000    7.2746    0.0000 C   0  0  0  0  0  0  0  0  0  0  0  0
    0.0000    6.0622    0.0000 N   0  0  0  0  0  0  0  0  0  0  0  0
    0.7000    4.8497    0.0000 C   0  0  0  0  0  0  0  0  0  0  0  0
    2.1000    4.8497    0.0000 C   0  0  0  0  0  0  0  0  0  0  0  0
    2.8000    6.0622    0.0000 C   0  0  0  0  0  0  0  0  0  0  0  0
    2.1000    7.2746    0.0000 C   0  0  0  0  0  0  0  0  0  0  0  0
    4.2000    6.0622    0.0000 C   0  0  0  0  0  0  0  0  0  0  0  0
    4.9000    4.8497    0.0000 C   0  0  0  0  0  0  0  0  0  0  0  0
    6.3000    4.8497    0.0000 C   0  0  0  0  0  0  0  0  0  0  0  0
    7.0000    6.0622    0.0000 C   0  0  0  0  0  0  0  0  0  0  0  0
    6.3000    7.2746    0.0000 C   0  0  0  0  0  0  0  0  0  0  0  0
    4.9000    7.2746    0.0000 C   0  0  0  0  0  0  0  0  0  0  0  0
    0.0000    8.4870    0.0000 F   0  0  0  0  0  0  0  0  0  0  0  0
    7.0000    3.6373    0.0000 C   0  0  0  0  0  0  0  0  0  0  0  0
    8.4000    6.0622    0.0000 O   0  0  0  0  0  0  0  0  0  0  0  0
    9.1000    7.2746    0.0000 C   0  0  0  0  0  0  0  0  0  0  0  0
   10.5000    7.2746    0.0000 C   0  0  0  0  0  0  0  0  0  0  0  0
   11.2000    6.0622    0.0000 C   0  0  0  0  0  0  0  0  0  0  0  0
   12.6000    6.0622    0.0000 C   0  0  0  0  0  0  0  0  0  0  0  0
   13.3000    7.2746    0.0000 C   0  0  0  0  0  0  0  0  0  0  0  0
   12.6000    8.4870    0.0000 C   0  0  0  0  0  0  0  0  0  0  0  0
   11.2000    8.4870    0.0000 C   0  0  0  0  0  0  0  0  0  0  0  0
    8.4000    3.6373    0.0000 N   0  0  0  0  0  0  0  0  0  0  0  0
    9.1000    2.4249    0.0000 C   0  0  0  0  0  0  0  0  0  0  0  0
    6.3000    2.4249    0.0000 O   0  0  0  0  0  0  0  0  0  0  0  0
    8.4000    1.2124    0.0000 C   0  0  0  0  0  0  0  0  0  0  0  0
    9.1000    0.0000    0.0000 C   0  0  0  0  0  0  0  0  0  0  0  0
   10.5000    0.0000    0.0000 C   0  0  0  0  0  0  0  0  0  0  0  0
   11.2000    1.2124    0.0000 N   0  0  0  0  0  0  0  0  0  0  0  0
   10.5000    2.4249    0.0000 C   0  0  0  0  0  0  0  0  0  0  0  0
  1  2  2  0  0  0  0
  2  3  1  0  0  0  0
  3  4  2  0  0  0  0
  4  5  1  0  0  0  0
  5  6  2  0  0  0  0
  6  1  1  0  0  0  0
  5  7  1  0  0  0  0
  7  8  2  0  0  0  0
  8  9  1  0  0  0  0
  9 10  2  0  0  0  0
 10 11  1  0  0  0  0
 11 12  2  0  0  0  0
 12  7  1  0  0  0  0
  1 13  1  0  0  0  0
  9 14  1  0  0  0  0
 10 15  1  0  0  0  0
 15 16  1  0  0  0  0
 16 17  1  0  0  0  0
 17 18  2  0  0  0  0
 18 19  1  0  0  0  0
 19 20  2  0  0  0  0
 20 21  1  0  0  0  0
 21 22  2  0  0  0  0
 22 17  1  0  0  0  0
 14 23  1  0  0  0  0
 23 24  1  0  0  0  0
 14 25  2  0  0  0  0
 24 26  2  0  0  0  0
 26 27  1  0  0  0  0
 27 28  2  0  0  0  0
 28 29  1  0  0  0  0
 29 30  2  0  0  0  0
 30 24  1  0  0  0  0
M  END
>  <Mol_ID> (472)
2862

>  <Formula> (472)
C24H18FN3O2

>  <MolWeight> (472)
399.4170232

>  <Cat> (472)
S7664

>  <Name> (472)
GSK2578215A

>  <Synonyms> (472)
N/A

>  <Target> (472)
LRRK2

>  <Form> (472)
Free Base

>  <CAS> (472)
1285515-21-0

>  <URL> (472)
http://www.selleckchem.com/products/gsk2578215a.html

$$$$
Poziotinib (HM781-36B, NOV120101).cdx
csChFnd80/05071909292D

 33 36  0  0  0  0  0  0  0  0999 V2000
   10.9119    7.7000    0.0000 C   0  0  0  0  0  0  0  0  0  0  0  0
   10.9119    6.3000    0.0000 C   0  0  0  0  0  0  0  0  0  0  0  0
   12.1244    5.6000    0.0000 C   0  0  0  0  0  0  0  0  0  0  0  0
   13.3368    6.3000    0.0000 N   0  0  0  0  0  0  0  0  0  0  0  0
   13.3368    7.7000    0.0000 C   0  0  0  0  0  0  0  0  0  0  0  0
   12.1244    8.4000    0.0000 N   0  0  0  0  0  0  0  0  0  0  0  0
    9.6995    8.4000    0.0000 C   0  0  0  0  0  0  0  0  0  0  0  0
    8.4870    7.7000    0.0000 C   0  0  0  0  0  0  0  0  0  0  0  0
    8.4870    6.3000    0.0000 C   0  0  0  0  0  0  0  0  0  0  0  0
    9.6995    5.6000    0.0000 C   0  0  0  0  0  0  0  0  0  0  0  0
    7.2746    8.4000    0.0000 O   0  0  0  0  0  0  0  0  0  0  0  0
    7.2746    9.8000    0.0000 C   0  0  0  0  0  0  0  0  0  0  0  0
    7.2746    5.6000    0.0000 O   0  0  0  0  0  0  0  0  0  0  0  0
    6.0622    6.3000    0.0000 C   0  0  0  0  0  0  0  0  0  0  0  0
    6.0622    7.7000    0.0000 C   0  0  0  0  0  0  0  0  0  0  0  0
    4.8497    8.4000    0.0000 C   0  0  0  0  0  0  0  0  0  0  0  0
    3.6373    7.7000    0.0000 N   0  0  0  0  0  0  0  0  0  0  0  0
    3.6373    6.3000    0.0000 C   0  0  0  0  0  0  0  0  0  0  0  0
    4.8497    5.6000    0.0000 C   0  0  0  0  0  0  0  0  0  0  0  0
    2.4249    8.4000    0.0000 C   0  0  0  0  0  0  0  0  0  0  0  0
    1.2124    7.7000    0.0000 C   0  0  0  0  0  0  0  0  0  0  0  0
    2.4249    9.8000    0.0000 O   0  0  0  0  0  0  0  0  0  0  0  0
    0.0000    8.4000    0.0000 C   0  0  0  0  0  0  0  0  0  0  0  0
   12.1244    4.2000    0.0000 N   0  0  0  0  0  0  0  0  0  0  0  0
   10.9119    3.5000    0.0000 C   0  0  0  0  0  0  0  0  0  0  0  0
    9.6995    4.2000    0.0000 C   0  0  0  0  0  0  0  0  0  0  0  0
    8.4870    3.5000    0.0000 C   0  0  0  0  0  0  0  0  0  0  0  0
    8.4870    2.1000    0.0000 C   0  0  0  0  0  0  0  0  0  0  0  0
    9.6995    1.4000    0.0000 C   0  0  0  0  0  0  0  0  0  0  0  0
   10.9119    2.1000    0.0000 C   0  0  0  0  0  0  0  0  0  0  0  0
   12.1244    1.4000    0.0000 F   0  0  0  0  0  0  0  0  0  0  0  0
    9.6995    0.0000    0.0000 Cl  0  0  0  0  0  0  0  0  0  0  0  0
    7.2746    1.4000    0.0000 Cl  0  0  0  0  0  0  0  0  0  0  0  0
  1  2  2  0  0  0  0
  2  3  1  0  0  0  0
  3  4  2  0  0  0  0
  4  5  1  0  0  0  0
  5  6  2  0  0  0  0
  6  1  1  0  0  0  0
  1  7  1  0  0  0  0
  7  8  2  0  0  0  0
  8  9  1  0  0  0  0
  9 10  2  0  0  0  0
 10  2  1  0  0  0  0
  8 11  1  0  0  0  0
 11 12  1  0  0  0  0
  9 13  1  0  0  0  0
 13 14  1  0  0  0  0
 14 15  1  0  0  0  0
 15 16  1  0  0  0  0
 16 17  1  0  0  0  0
 17 18  1  0  0  0  0
 18 19  1  0  0  0  0
 19 14  1  0  0  0  0
 17 20  1  0  0  0  0
 20 21  1  0  0  0  0
 20 22  2  0  0  0  0
 21 23  2  0  0  0  0
  3 24  1  0  0  0  0
 24 25  1  0  0  0  0
 25 26  2  0  0  0  0
 26 27  1  0  0  0  0
 27 28  2  0  0  0  0
 28 29  1  0  0  0  0
 29 30  2  0  0  0  0
 30 25  1  0  0  0  0
 30 31  1  0  0  0  0
 29 32  1  0  0  0  0
 28 33  1  0  0  0  0
M  END
>  <Mol_ID> (473)
2864

>  <Formula> (473)
C23H21Cl2FN4O3

>  <MolWeight> (473)
491.3422432

>  <Cat> (473)
S7358

>  <Name> (473)
Poziotinib (HM781-36B)

>  <Synonyms> (473)
NOV120101

>  <Target> (473)
EGFR

>  <Form> (473)
Free Base

>  <CAS> (473)
1092364-38-9

>  <URL> (473)
http://www.selleckchem.com/products/poziotinib-hm781-36b.html

$$$$
LY2584702.cdx
csChFnd80/05071909292D

 32 36  0  0  0  0  0  0  0  0999 V2000
    1.2124    5.0624    0.0000 C   0  0  0  0  0  0  0  0  0  0  0  0
    1.2124    3.6624    0.0000 C   0  0  0  0  0  0  0  0  0  0  0  0
    2.4249    2.9624    0.0000 C   0  0  0  0  0  0  0  0  0  0  0  0
    3.6373    3.6624    0.0000 C   0  0  0  0  0  0  0  0  0  0  0  0
    3.6373    5.0624    0.0000 C   0  0  0  0  0  0  0  0  0  0  0  0
    2.4249    5.7624    0.0000 C   0  0  0  0  0  0  0  0  0  0  0  0
    4.8497    2.9624    0.0000 C   0  0  0  0  0  0  0  0  0  0  0  0
    4.9961    1.5700    0.0000 C   0  0  0  0  0  0  0  0  0  0  0  0
    6.3655    1.2790    0.0000 N   0  0  0  0  0  0  0  0  0  0  0  0
    7.0655    2.4914    0.0000 C   0  0  0  0  0  0  0  0  0  0  0  0
    6.1287    3.5318    0.0000 N   0  0  0  0  0  0  0  0  0  0  0  0
    6.9349    0.0000    0.0000 C   0  0  0  0  0  0  0  0  0  0  0  0
    8.4578    2.6377    0.0000 C   0  0  0  0  0  0  0  0  0  0  0  0
    9.2807    1.5051    0.0000 C   0  0  0  0  0  0  0  0  0  0  0  0
   10.6730    1.6515    0.0000 C   0  0  0  0  0  0  0  0  0  0  0  0
   11.2425    2.9304    0.0000 N   0  0  0  0  0  0  0  0  0  0  0  0
   10.4196    4.0630    0.0000 C   0  0  0  0  0  0  0  0  0  0  0  0
    9.0272    3.9167    0.0000 C   0  0  0  0  0  0  0  0  0  0  0  0
   12.6348    3.0768    0.0000 C   0  0  0  0  0  0  0  0  0  0  0  0
   13.4577    1.9441    0.0000 N   0  0  0  0  0  0  0  0  0  0  0  0
   14.8500    2.0905    0.0000 C   0  0  0  0  0  0  0  0  0  0  0  0
   15.4195    3.3694    0.0000 N   0  0  0  0  0  0  0  0  0  0  0  0
   14.5966    4.5021    0.0000 C   0  0  0  0  0  0  0  0  0  0  0  0
   13.2042    4.3557    0.0000 C   0  0  0  0  0  0  0  0  0  0  0  0
   14.8876    5.8715    0.0000 N   0  0  0  0  0  0  0  0  0  0  0  0
   13.6752    6.5715    0.0000 N   0  0  0  0  0  0  0  0  0  0  0  0
   12.6348    5.6347    0.0000 C   0  0  0  0  0  0  0  0  0  0  0  0
    2.4249    7.1624    0.0000 C   0  0  0  0  0  0  0  0  0  0  0  0
    1.2124    7.8624    0.0000 F   0  0  0  0  0  0  0  0  0  0  0  0
    3.6373    7.8624    0.0000 F   0  0  0  0  0  0  0  0  0  0  0  0
    2.4249    8.5624    0.0000 F   0  0  0  0  0  0  0  0  0  0  0  0
    0.0000    5.7624    0.0000 F   0  0  0  0  0  0  0  0  0  0  0  0
  1  2  2  0  0  0  0
  2  3  1  0  0  0  0
  3  4  2  0  0  0  0
  4  5  1  0  0  0  0
  5  6  2  0  0  0  0
  6  1  1  0  0  0  0
  4  7  1  0  0  0  0
  7  8  2  0  0  0  0
  8  9  1  0  0  0  0
  9 10  1  0  0  0  0
 10 11  2  0  0  0  0
 11  7  1  0  0  0  0
  9 12  1  0  0  0  0
 10 13  1  0  0  0  0
 13 14  1  0  0  0  0
 14 15  1  0  0  0  0
 15 16  1  0  0  0  0
 16 17  1  0  0  0  0
 17 18  1  0  0  0  0
 18 13  1  0  0  0  0
 16 19  1  0  0  0  0
 19 20  2  0  0  0  0
 20 21  1  0  0  0  0
 21 22  2  0  0  0  0
 22 23  1  0  0  0  0
 23 24  2  0  0  0  0
 24 19  1  0  0  0  0
 23 25  1  0  0  0  0
 25 26  1  0  0  0  0
 26 27  2  0  0  0  0
 27 24  1  0  0  0  0
  6 28  1  0  0  0  0
 28 29  1  0  0  0  0
 28 30  1  0  0  0  0
 28 31  1  0  0  0  0
  1 32  1  0  0  0  0
M  END
>  <Mol_ID> (474)
2865

>  <Formula> (474)
C21H19F4N7

>  <MolWeight> (474)
445.4160728

>  <Cat> (474)
S7698

>  <Name> (474)
LY2584702

>  <Synonyms> (474)
N/A

>  <Target> (474)
S6 Kinase

>  <Form> (474)
Free Base

>  <CAS> (474)
1082949-67-4

>  <URL> (474)
http://www.selleckchem.com/products/ly2584702.html

$$$$
PI-3065.cdx
csChFnd80/05071909292D

 36 42  0  0  0  0  0  0  0  0999 V2000
    8.9668    6.2497    0.0000 C   0  0  0  0  0  0  0  0  0  0  0  0
    8.9668    4.8497    0.0000 C   0  0  0  0  0  0  0  0  0  0  0  0
   10.1792    4.1497    0.0000 N   0  0  0  0  0  0  0  0  0  0  0  0
   11.3917    4.8497    0.0000 C   0  0  0  0  0  0  0  0  0  0  0  0
   11.3917    6.2497    0.0000 N   0  0  0  0  0  0  0  0  0  0  0  0
   10.1792    6.9497    0.0000 C   0  0  0  0  0  0  0  0  0  0  0  0
   10.1792    8.3497    0.0000 N   0  0  0  0  0  0  0  0  0  0  0  0
   11.3917    9.0497    0.0000 C   0  0  0  0  0  0  0  0  0  0  0  0
   11.3917   10.4497    0.0000 C   0  0  0  0  0  0  0  0  0  0  0  0
   10.1792   11.1497    0.0000 O   0  0  0  0  0  0  0  0  0  0  0  0
    8.9668   10.4497    0.0000 C   0  0  0  0  0  0  0  0  0  0  0  0
    8.9668    9.0497    0.0000 C   0  0  0  0  0  0  0  0  0  0  0  0
   12.6041    4.1497    0.0000 C   0  0  0  0  0  0  0  0  0  0  0  0
   12.6041    2.7497    0.0000 C   0  0  0  0  0  0  0  0  0  0  0  0
   13.8166    2.0497    0.0000 C   0  0  0  0  0  0  0  0  0  0  0  0
   15.0290    2.7497    0.0000 C   0  0  0  0  0  0  0  0  0  0  0  0
   15.0290    4.1497    0.0000 C   0  0  0  0  0  0  0  0  0  0  0  0
   13.8166    4.8497    0.0000 C   0  0  0  0  0  0  0  0  0  0  0  0
    7.6353    6.6824    0.0000 S   0  0  0  0  0  0  0  0  0  0  0  0
    6.8124    5.5497    0.0000 C   0  0  0  0  0  0  0  0  0  0  0  0
    7.6353    4.4171    0.0000 C   0  0  0  0  0  0  0  0  0  0  0  0
    5.4124    5.5497    0.0000 C   0  0  0  0  0  0  0  0  0  0  0  0
    4.7124    4.3373    0.0000 N   0  0  0  0  0  0  0  0  0  0  0  0
    3.3124    4.3373    0.0000 C   0  0  0  0  0  0  0  0  0  0  0  0
    2.6124    3.1249    0.0000 C   0  0  0  0  0  0  0  0  0  0  0  0
    3.3124    1.9124    0.0000 N   0  0  0  0  0  0  0  0  0  0  0  0
    4.7124    1.9124    0.0000 C   0  0  0  0  0  0  0  0  0  0  0  0
    5.4124    3.1249    0.0000 C   0  0  0  0  0  0  0  0  0  0  0  0
   16.0694    5.0865    0.0000 N   0  0  0  0  0  0  0  0  0  0  0  0
   15.5000    6.3655    0.0000 C   0  0  0  0  0  0  0  0  0  0  0  0
   14.1076    6.2191    0.0000 C   0  0  0  0  0  0  0  0  0  0  0  0
   11.3917    2.0497    0.0000 F   0  0  0  0  0  0  0  0  0  0  0  0
    2.6124    0.7000    0.0000 C   0  0  0  0  0  0  0  0  0  0  0  0
    1.2124    0.7000    0.0000 C   0  0  0  0  0  0  0  0  0  0  0  0
    0.0000    1.4000    0.0000 C   0  0  0  0  0  0  0  0  0  0  0  0
    0.0000    0.0000    0.0000 C   0  0  0  0  0  0  0  0  0  0  0  0
  1  2  2  0  0  0  0
  2  3  1  0  0  0  0
  3  4  2  0  0  0  0
  4  5  1  0  0  0  0
  5  6  2  0  0  0  0
  6  1  1  0  0  0  0
  6  7  1  0  0  0  0
  7  8  1  0  0  0  0
  8  9  1  0  0  0  0
  9 10  1  0  0  0  0
 10 11  1  0  0  0  0
 11 12  1  0  0  0  0
 12  7  1  0  0  0  0
  4 13  1  0  0  0  0
 13 14  2  0  0  0  0
 14 15  1  0  0  0  0
 15 16  2  0  0  0  0
 16 17  1  0  0  0  0
 18 13  1  0  0  0  0
  1 19  1  0  0  0  0
 19 20  1  0  0  0  0
 20 21  2  0  0  0  0
 21  2  1  0  0  0  0
 20 22  1  0  0  0  0
 22 23  1  0  0  0  0
 23 24  1  0  0  0  0
 24 25  1  0  0  0  0
 25 26  1  0  0  0  0
 26 27  1  0  0  0  0
 27 28  1  0  0  0  0
 28 23  1  0  0  0  0
 18 17  2  0  0  0  0
 17 29  1  0  0  0  0
 29 30  1  0  0  0  0
 30 31  2  0  0  0  0
 31 18  1  0  0  0  0
 14 32  1  0  0  0  0
 26 33  1  0  0  0  0
 33 34  1  0  0  0  0
 34 35  1  0  0  0  0
 35 36  1  0  0  0  0
 36 34  1  0  0  0  0
M  END
>  <Mol_ID> (475)
2872

>  <Formula> (475)
C27H31FN6OS

>  <MolWeight> (475)
506.6380432

>  <Cat> (475)
S7623

>  <Name> (475)
PI-3065

>  <Synonyms> (475)
N/A

>  <Target> (475)
PI3K

>  <Form> (475)
Free Base

>  <CAS> (475)
955977-50-1

>  <URL> (475)
http://www.selleckchem.com/products/pi-3065.html

$$$$
SBE 13 hydrochloride.cdx
csChFnd80/05071909292D

 32 33  0  0  0  0  0  0  0  0999 V2000
    1.2124    2.1000    0.0000 N   0  0  0  0  0  0  0  0  0  0  0  0
    1.2124    0.7000    0.0000 C   0  0  0  0  0  0  0  0  0  0  0  0
    2.4249    0.0000    0.0000 C   0  0  0  0  0  0  0  0  0  0  0  0
    3.6373    0.7000    0.0000 C   0  0  0  0  0  0  0  0  0  0  0  0
    3.6373    2.1000    0.0000 C   0  0  0  0  0  0  0  0  0  0  0  0
    2.4249    2.8000    0.0000 C   0  0  0  0  0  0  0  0  0  0  0  0
    0.0000    0.0000    0.0000 Cl  0  0  0  0  0  0  0  0  0  0  0  0
    4.8497    2.8000    0.0000 C   0  0  0  0  0  0  0  0  0  0  0  0
    6.0622    2.1000    0.0000 O   0  0  0  0  0  0  0  0  0  0  0  0
    7.2746    2.8000    0.0000 C   0  0  0  0  0  0  0  0  0  0  0  0
    8.4870    2.1000    0.0000 C   0  0  0  0  0  0  0  0  0  0  0  0
    9.6995    2.8000    0.0000 C   0  0  0  0  0  0  0  0  0  0  0  0
    9.6995    4.2000    0.0000 C   0  0  0  0  0  0  0  0  0  0  0  0
    8.4870    4.9000    0.0000 C   0  0  0  0  0  0  0  0  0  0  0  0
    7.2746    4.2000    0.0000 C   0  0  0  0  0  0  0  0  0  0  0  0
    6.0622    4.9000    0.0000 O   0  0  0  0  0  0  0  0  0  0  0  0
    4.8497    4.2000    0.0000 C   0  0  0  0  0  0  0  0  0  0  0  0
   10.9119    4.9000    0.0000 C   0  0  0  0  0  0  0  0  0  0  0  0
   12.1244    4.2000    0.0000 N   0  0  0  0  0  0  0  0  0  0  0  0
   13.3368    4.9000    0.0000 C   0  0  0  0  0  0  0  0  0  0  0  0
   14.5492    4.2000    0.0000 C   0  0  0  0  0  0  0  0  0  0  0  0
   15.7617    4.9000    0.0000 C   0  0  0  0  0  0  0  0  0  0  0  0
   16.9741    4.2000    0.0000 C   0  0  0  0  0  0  0  0  0  0  0  0
   18.1865    4.9000    0.0000 C   0  0  0  0  0  0  0  0  0  0  0  0
   18.1865    6.3000    0.0000 C   0  0  0  0  0  0  0  0  0  0  0  0
   16.9741    7.0000    0.0000 C   0  0  0  0  0  0  0  0  0  0  0  0
   15.7617    6.3000    0.0000 C   0  0  0  0  0  0  0  0  0  0  0  0
   16.9741    8.4000    0.0000 O   0  0  0  0  0  0  0  0  0  0  0  0
   19.3990    7.0000    0.0000 O   0  0  0  0  0  0  0  0  0  0  0  0
   20.6114    6.3000    0.0000 C   0  0  0  0  0  0  0  0  0  0  0  0
   15.7617    9.1000    0.0000 C   0  0  0  0  0  0  0  0  0  0  0  0
   12.1899    1.3300    0.0000 Cl  0  0  0  0  0  0  0  0  0  0  0  0
  1  2  2  0  0  0  0
  2  3  1  0  0  0  0
  3  4  2  0  0  0  0
  4  5  1  0  0  0  0
  5  6  2  0  0  0  0
  6  1  1  0  0  0  0
  2  7  1  0  0  0  0
  5  8  1  0  0  0  0
  8  9  1  0  0  0  0
  9 10  1  0  0  0  0
 10 11  2  0  0  0  0
 11 12  1  0  0  0  0
 12 13  2  0  0  0  0
 13 14  1  0  0  0  0
 14 15  2  0  0  0  0
 15 10  1  0  0  0  0
 15 16  1  0  0  0  0
 16 17  1  0  0  0  0
 13 18  1  0  0  0  0
 18 19  1  0  0  0  0
 19 20  1  0  0  0  0
 20 21  1  0  0  0  0
 21 22  1  0  0  0  0
 22 23  2  0  0  0  0
 23 24  1  0  0  0  0
 24 25  2  0  0  0  0
 25 26  1  0  0  0  0
 26 27  2  0  0  0  0
 27 22  1  0  0  0  0
 26 28  1  0  0  0  0
 25 29  1  0  0  0  0
 29 30  1  0  0  0  0
 28 31  1  0  0  0  0
M  END
>  <Mol_ID> (476)
2876

>  <Formula> (476)
C24H28Cl2N2O4

>  <MolWeight> (476)
479.39612

>  <Cat> (476)
S7720

>  <Name> (476)
SBE 13 HCl

>  <Synonyms> (476)
N/A

>  <Target> (476)
PLK

>  <Form> (476)
Hydrochloride

>  <CAS> (476)
1052532-15-6

>  <URL> (476)
http://www.selleckchem.com/products/sbe-13-hcl.html

$$$$
Bikinin.cdx
csChFnd80/05071909292D

 15 15  0  0  0  0  0  0  0  0999 V2000
    1.2124    2.1000    0.0000 C   0  0  0  0  0  0  0  0  0  0  0  0
    1.2124    0.7000    0.0000 C   0  0  0  0  0  0  0  0  0  0  0  0
    2.4249    0.0000    0.0000 C   0  0  0  0  0  0  0  0  0  0  0  0
    3.6373    0.7000    0.0000 C   0  0  0  0  0  0  0  0  0  0  0  0
    3.6373    2.1000    0.0000 C   0  0  0  0  0  0  0  0  0  0  0  0
    2.4249    2.8000    0.0000 N   0  0  0  0  0  0  0  0  0  0  0  0
    0.0000    0.0000    0.0000 Br  0  0  0  0  0  0  0  0  0  0  0  0
    4.8497    2.8000    0.0000 N   0  0  0  0  0  0  0  0  0  0  0  0
    6.0622    2.1000    0.0000 C   0  0  0  0  0  0  0  0  0  0  0  0
    7.2746    2.8000    0.0000 C   0  0  0  0  0  0  0  0  0  0  0  0
    8.4870    2.1000    0.0000 C   0  0  0  0  0  0  0  0  0  0  0  0
    9.6995    2.8000    0.0000 C   0  0  0  0  0  0  0  0  0  0  0  0
   10.9119    2.1000    0.0000 O   0  0  0  0  0  0  0  0  0  0  0  0
    6.0622    0.7000    0.0000 O   0  0  0  0  0  0  0  0  0  0  0  0
    9.6995    4.2000    0.0000 O   0  0  0  0  0  0  0  0  0  0  0  0
  1  2  2  0  0  0  0
  2  3  1  0  0  0  0
  3  4  2  0  0  0  0
  4  5  1  0  0  0  0
  5  6  2  0  0  0  0
  6  1  1  0  0  0  0
  2  7  1  0  0  0  0
  5  8  1  0  0  0  0
  8  9  1  0  0  0  0
  9 10  1  0  0  0  0
 10 11  1  0  0  0  0
 11 12  1  0  0  0  0
 12 13  1  0  0  0  0
  9 14  2  0  0  0  0
 12 15  2  0  0  0  0
M  END
>  <Mol_ID> (477)
2877

>  <Formula> (477)
C9H9BrN2O3

>  <MolWeight> (477)
273.08336

>  <Cat> (477)
S7722

>  <Name> (477)
Bikinin

>  <Synonyms> (477)
N/A

>  <Target> (477)
GSK-3

>  <Form> (477)
Free Base

>  <CAS> (477)
188011-69-0

>  <URL> (477)
http://www.selleckchem.com/products/bikinin.html

$$$$
SD208.cdx
csChFnd80/05071909292D

 25 28  0  0  0  0  0  0  0  0999 V2000
    0.0000    5.6000    0.0000 C   0  0  0  0  0  0  0  0  0  0  0  0
    0.0000    4.2000    0.0000 C   0  0  0  0  0  0  0  0  0  0  0  0
    1.2124    3.5000    0.0000 N   0  0  0  0  0  0  0  0  0  0  0  0
    2.4249    4.2000    0.0000 C   0  0  0  0  0  0  0  0  0  0  0  0
    2.4249    5.6000    0.0000 C   0  0  0  0  0  0  0  0  0  0  0  0
    1.2124    6.3000    0.0000 N   0  0  0  0  0  0  0  0  0  0  0  0
    3.6373    3.5000    0.0000 N   0  0  0  0  0  0  0  0  0  0  0  0
    4.8497    4.2000    0.0000 C   0  0  0  0  0  0  0  0  0  0  0  0
    4.8497    5.6000    0.0000 N   0  0  0  0  0  0  0  0  0  0  0  0
    3.6373    6.3000    0.0000 C   0  0  0  0  0  0  0  0  0  0  0  0
    3.6373    7.7000    0.0000 N   0  0  0  0  0  0  0  0  0  0  0  0
    4.8497    8.4000    0.0000 C   0  0  0  0  0  0  0  0  0  0  0  0
    6.0622    3.5000    0.0000 C   0  0  0  0  0  0  0  0  0  0  0  0
    6.0622    7.7000    0.0000 C   0  0  0  0  0  0  0  0  0  0  0  0
    7.2746    8.4000    0.0000 C   0  0  0  0  0  0  0  0  0  0  0  0
    7.2746    9.8000    0.0000 N   0  0  0  0  0  0  0  0  0  0  0  0
    6.0622   10.5000    0.0000 C   0  0  0  0  0  0  0  0  0  0  0  0
    4.8497    9.8000    0.0000 C   0  0  0  0  0  0  0  0  0  0  0  0
    6.0622    2.1000    0.0000 C   0  0  0  0  0  0  0  0  0  0  0  0
    7.2746    1.4000    0.0000 C   0  0  0  0  0  0  0  0  0  0  0  0
    8.4870    2.1000    0.0000 C   0  0  0  0  0  0  0  0  0  0  0  0
    8.4870    3.5000    0.0000 C   0  0  0  0  0  0  0  0  0  0  0  0
    7.2746    4.2000    0.0000 C   0  0  0  0  0  0  0  0  0  0  0  0
    7.2746    5.6000    0.0000 F   0  0  0  0  0  0  0  0  0  0  0  0
    7.2746    0.0000    0.0000 Cl  0  0  0  0  0  0  0  0  0  0  0  0
  1  2  2  0  0  0  0
  2  3  1  0  0  0  0
  3  4  2  0  0  0  0
  4  5  1  0  0  0  0
  5  6  2  0  0  0  0
  6  1  1  0  0  0  0
  4  7  1  0  0  0  0
  7  8  2  0  0  0  0
  8  9  1  0  0  0  0
  9 10  2  0  0  0  0
 10  5  1  0  0  0  0
 10 11  1  0  0  0  0
 11 12  1  0  0  0  0
  8 13  1  0  0  0  0
 12 14  2  0  0  0  0
 14 15  1  0  0  0  0
 15 16  2  0  0  0  0
 16 17  1  0  0  0  0
 17 18  2  0  0  0  0
 18 12  1  0  0  0  0
 13 19  2  0  0  0  0
 19 20  1  0  0  0  0
 20 21  2  0  0  0  0
 21 22  1  0  0  0  0
 22 23  2  0  0  0  0
 23 13  1  0  0  0  0
 23 24  1  0  0  0  0
 20 25  1  0  0  0  0
M  END
>  <Mol_ID> (478)
2879

>  <Formula> (478)
C17H10ClFN6

>  <MolWeight> (478)
352.7529032

>  <Cat> (478)
S7624

>  <Name> (478)
SD-208

>  <Synonyms> (478)
N/A

>  <Target> (478)
TGF-beta/Smad

>  <Form> (478)
Free Base

>  <CAS> (478)
627536-09-8

>  <URL> (478)
http://www.selleckchem.com/products/sd-208.html

$$$$
LFM-A13.cdx
csChFnd80/05071909292D

 17 17  0  0  0  0  0  0  0  0999 V2000
    0.0000    3.5000    0.0000 C   0  0  0  0  0  0  0  0  0  0  0  0
    0.0000    2.1000    0.0000 C   0  0  0  0  0  0  0  0  0  0  0  0
    1.2124    1.4000    0.0000 C   0  0  0  0  0  0  0  0  0  0  0  0
    2.4249    2.1000    0.0000 C   0  0  0  0  0  0  0  0  0  0  0  0
    2.4249    3.5000    0.0000 C   0  0  0  0  0  0  0  0  0  0  0  0
    1.2124    4.2000    0.0000 C   0  0  0  0  0  0  0  0  0  0  0  0
    1.2124    5.6000    0.0000 Br  0  0  0  0  0  0  0  0  0  0  0  0
    1.2124    0.0000    0.0000 Br  0  0  0  0  0  0  0  0  0  0  0  0
    3.6373    4.2000    0.0000 N   0  0  0  0  0  0  0  0  0  0  0  0
    4.8497    3.5000    0.0000 C   0  0  0  0  0  0  0  0  0  0  0  0
    6.0622    4.2000    0.0000 C   0  0  0  0  0  0  0  0  0  0  0  0
    7.2746    3.5000    0.0000 C   0  0  0  0  0  0  0  0  0  0  0  0
    4.8497    2.1000    0.0000 O   0  0  0  0  0  0  0  0  0  0  0  0
    8.4870    4.2000    0.0000 C   0  0  0  0  0  0  0  0  0  0  0  0
    7.2746    2.1000    0.0000 O   0  0  0  0  0  0  0  0  0  0  0  0
    6.0622    5.6000    0.0000 C   0  0  0  0  0  0  0  0  0  0  0  0
    6.0622    7.0000    0.0000 N   0  0  0  0  0  0  0  0  0  0  0  0
  1  2  2  0  0  0  0
  2  3  1  0  0  0  0
  3  4  2  0  0  0  0
  4  5  1  0  0  0  0
  5  6  2  0  0  0  0
  6  1  1  0  0  0  0
  6  7  1  0  0  0  0
  3  8  1  0  0  0  0
  5  9  1  0  0  0  0
  9 10  1  0  0  0  0
 10 11  1  0  0  0  0
 11 12  2  0  0  0  0
 10 13  2  0  0  0  0
 12 14  1  0  0  0  0
 12 15  1  0  0  0  0
 11 16  1  0  0  0  0
 16 17  3  0  0  0  0
M  END
>  <Mol_ID> (479)
2880

>  <Formula> (479)
C11H8Br2N2O2

>  <MolWeight> (479)
360.00142

>  <Cat> (479)
S7734

>  <Name> (479)
LFM-A13

>  <Synonyms> (479)
N/A

>  <Target> (479)
BTK

>  <Form> (479)
Free Base

>  <CAS> (479)
244240-24-2

>  <URL> (479)
http://www.selleckchem.com/products/lfm-a13.html

$$$$
LDC1267.cdx
csChFnd80/05071909292D

 41 45  0  0  0  0  0  0  0  0999 V2000
    2.4165    2.1000    0.0000 C   0  0  0  0  0  0  0  0  0  0  0  0
    2.4165    0.7000    0.0000 C   0  0  0  0  0  0  0  0  0  0  0  0
    3.6289    0.0000    0.0000 C   0  0  0  0  0  0  0  0  0  0  0  0
    4.8413    0.7000    0.0000 C   0  0  0  0  0  0  0  0  0  0  0  0
    4.8413    2.1000    0.0000 C   0  0  0  0  0  0  0  0  0  0  0  0
    3.6289    2.8000    0.0000 C   0  0  0  0  0  0  0  0  0  0  0  0
    6.0538    0.0000    0.0000 N   0  0  0  0  0  0  0  0  0  0  0  0
    7.2662    0.7000    0.0000 C   0  0  0  0  0  0  0  0  0  0  0  0
    7.2662    2.1000    0.0000 C   0  0  0  0  0  0  0  0  0  0  0  0
    6.0538    2.8000    0.0000 C   0  0  0  0  0  0  0  0  0  0  0  0
    6.0538    4.2000    0.0000 O   0  0  0  0  0  0  0  0  0  0  0  0
    7.2662    4.9000    0.0000 C   0  0  0  0  0  0  0  0  0  0  0  0
    8.4786    4.2000    0.0000 C   0  0  0  0  0  0  0  0  0  0  0  0
    9.6911    4.9000    0.0000 C   0  0  0  0  0  0  0  0  0  0  0  0
    9.6911    6.3000    0.0000 C   0  0  0  0  0  0  0  0  0  0  0  0
    8.4786    7.0000    0.0000 C   0  0  0  0  0  0  0  0  0  0  0  0
    7.2662    6.3000    0.0000 C   0  0  0  0  0  0  0  0  0  0  0  0
    6.0538    7.0000    0.0000 F   0  0  0  0  0  0  0  0  0  0  0  0
   10.9035    7.0000    0.0000 N   0  0  0  0  0  0  0  0  0  0  0  0
   12.1159    6.3000    0.0000 C   0  0  0  0  0  0  0  0  0  0  0  0
   13.3284    7.0000    0.0000 C   0  0  0  0  0  0  0  0  0  0  0  0
   12.1159    4.9000    0.0000 O   0  0  0  0  0  0  0  0  0  0  0  0
   14.6073    6.4306    0.0000 N   0  0  0  0  0  0  0  0  0  0  0  0
   15.5441    7.4710    0.0000 N   0  0  0  0  0  0  0  0  0  0  0  0
   14.8441    8.6834    0.0000 C   0  0  0  0  0  0  0  0  0  0  0  0
   13.4747    8.3923    0.0000 C   0  0  0  0  0  0  0  0  0  0  0  0
    1.2082    2.7976    0.0000 O   0  0  0  0  0  0  0  0  0  0  0  0
    0.0000    2.1000    0.0000 C   0  0  0  0  0  0  0  0  0  0  0  0
    1.2082    0.0024    0.0000 O   0  0  0  0  0  0  0  0  0  0  0  0
    0.0000    0.7000    0.0000 C   0  0  0  0  0  0  0  0  0  0  0  0
   12.4379    9.3259    0.0000 O   0  0  0  0  0  0  0  0  0  0  0  0
   12.7280   10.6905    0.0000 C   0  0  0  0  0  0  0  0  0  0  0  0
   11.6912   11.6240    0.0000 C   0  0  0  0  0  0  0  0  0  0  0  0
   16.9316    7.3251    0.0000 C   0  0  0  0  0  0  0  0  0  0  0  0
   17.4608    6.0290    0.0000 C   0  0  0  0  0  0  0  0  0  0  0  0
   18.8479    5.8393    0.0000 C   0  0  0  0  0  0  0  0  0  0  0  0
   19.7058    6.9456    0.0000 C   0  0  0  0  0  0  0  0  0  0  0  0
   19.1766    8.2418    0.0000 C   0  0  0  0  0  0  0  0  0  0  0  0
   17.7895    8.4315    0.0000 C   0  0  0  0  0  0  0  0  0  0  0  0
   17.2621    9.7231    0.0000 C   0  0  0  0  0  0  0  0  0  0  0  0
   21.0881    6.7565    0.0000 F   0  0  0  0  0  0  0  0  0  0  0  0
  1  2  2  0  0  0  0
  2  3  1  0  0  0  0
  3  4  2  0  0  0  0
  4  5  1  0  0  0  0
  5  6  2  0  0  0  0
  6  1  1  0  0  0  0
  4  7  1  0  0  0  0
  7  8  2  0  0  0  0
  8  9  1  0  0  0  0
  9 10  2  0  0  0  0
 10  5  1  0  0  0  0
 10 11  1  0  0  0  0
 11 12  1  0  0  0  0
 12 13  2  0  0  0  0
 13 14  1  0  0  0  0
 14 15  2  0  0  0  0
 15 16  1  0  0  0  0
 16 17  2  0  0  0  0
 17 12  1  0  0  0  0
 17 18  1  0  0  0  0
 15 19  1  0  0  0  0
 19 20  1  0  0  0  0
 20 21  1  0  0  0  0
 20 22  2  0  0  0  0
 21 23  2  0  0  0  0
 23 24  1  0  0  0  0
 24 25  1  0  0  0  0
 25 26  2  0  0  0  0
 26 21  1  0  0  0  0
  1 27  1  0  0  0  0
 27 28  1  0  0  0  0
  2 29  1  0  0  0  0
 29 30  1  0  0  0  0
 26 31  1  0  0  0  0
 31 32  1  0  0  0  0
 32 33  1  0  0  0  0
 24 34  1  0  0  0  0
 34 35  2  0  0  0  0
 35 36  1  0  0  0  0
 36 37  2  0  0  0  0
 37 38  1  0  0  0  0
 38 39  2  0  0  0  0
 39 34  1  0  0  0  0
 39 40  1  0  0  0  0
 37 41  1  0  0  0  0
M  END
>  <Mol_ID> (480)
2885

>  <Formula> (480)
C30H26F2N4O5

>  <MolWeight> (480)
560.5480464

>  <Cat> (480)
S7638

>  <Name> (480)
LDC1267

>  <Synonyms> (480)
N/A

>  <Target> (480)
Axl

>  <Form> (480)
Free Base

>  <CAS> (480)
1361030-48-9

>  <URL> (480)
http://www.selleckchem.com/products/ldc1267.html

$$$$
LY2584702 tosylate.cdx
csChFnd80/05071909292D

 43 47  0  0  0  0  0  0  0  0999 V2000
    7.6247    5.2093    0.0000 C   0  0  0  0  0  0  0  0  0  0  0  0
    6.4756    6.0090    0.0000 N   0  0  0  0  0  0  0  0  0  0  0  0
    5.3600    5.1633    0.0000 C   0  0  0  0  0  0  0  0  0  0  0  0
    5.8195    3.8409    0.0000 C   0  0  0  0  0  0  0  0  0  0  0  0
    7.2193    3.8693    0.0000 N   0  0  0  0  0  0  0  0  0  0  0  0
    8.0650    2.7536    0.0000 C   0  0  0  0  0  0  0  0  0  0  0  0
    8.9472    5.6689    0.0000 C   0  0  0  0  0  0  0  0  0  0  0  0
    4.0200    5.5688    0.0000 C   0  0  0  0  0  0  0  0  0  0  0  0
    3.7011    6.9320    0.0000 C   0  0  0  0  0  0  0  0  0  0  0  0
    2.3612    7.3375    0.0000 C   0  0  0  0  0  0  0  0  0  0  0  0
    1.3400    6.3797    0.0000 C   0  0  0  0  0  0  0  0  0  0  0  0
    1.6588    5.0165    0.0000 C   0  0  0  0  0  0  0  0  0  0  0  0
    2.9988    4.6110    0.0000 C   0  0  0  0  0  0  0  0  0  0  0  0
   10.0064    4.7534    0.0000 C   0  0  0  0  0  0  0  0  0  0  0  0
   11.3288    5.2130    0.0000 C   0  0  0  0  0  0  0  0  0  0  0  0
   11.5920    6.5880    0.0000 N   0  0  0  0  0  0  0  0  0  0  0  0
   10.5328    7.5035    0.0000 C   0  0  0  0  0  0  0  0  0  0  0  0
    9.2104    7.0439    0.0000 C   0  0  0  0  0  0  0  0  0  0  0  0
   12.9144    7.0476    0.0000 C   0  0  0  0  0  0  0  0  0  0  0  0
   13.9736    6.1321    0.0000 N   0  0  0  0  0  0  0  0  0  0  0  0
   15.2960    6.5917    0.0000 C   0  0  0  0  0  0  0  0  0  0  0  0
   15.5592    7.9668    0.0000 N   0  0  0  0  0  0  0  0  0  0  0  0
   14.5000    8.8822    0.0000 C   0  0  0  0  0  0  0  0  0  0  0  0
   13.1776    8.4226    0.0000 C   0  0  0  0  0  0  0  0  0  0  0  0
   14.5000   10.2819    0.0000 N   0  0  0  0  0  0  0  0  0  0  0  0
   13.1776   10.6874    0.0000 N   0  0  0  0  0  0  0  0  0  0  0  0
   12.3779    9.5383    0.0000 C   0  0  0  0  0  0  0  0  0  0  0  0
    2.0423    8.7007    0.0000 C   0  0  0  0  0  0  0  0  0  0  0  0
    3.0635    9.6584    0.0000 F   0  0  0  0  0  0  0  0  0  0  0  0
    0.7023    9.1062    0.0000 F   0  0  0  0  0  0  0  0  0  0  0  0
    1.7235   10.0639    0.0000 F   0  0  0  0  0  0  0  0  0  0  0  0
    0.0000    6.7852    0.0000 F   0  0  0  0  0  0  0  0  0  0  0  0
    9.2902    2.1000    0.0000 C   0  0  0  0  0  0  0  0  0  0  0  0
    9.2902    0.7000    0.0000 C   0  0  0  0  0  0  0  0  0  0  0  0
   10.5027    0.0000    0.0000 C   0  0  0  0  0  0  0  0  0  0  0  0
   11.7151    0.7000    0.0000 C   0  0  0  0  0  0  0  0  0  0  0  0
   11.7151    2.1000    0.0000 C   0  0  0  0  0  0  0  0  0  0  0  0
   10.5027    2.8000    0.0000 C   0  0  0  0  0  0  0  0  0  0  0  0
    8.0778    0.0000    0.0000 C   0  0  0  0  0  0  0  0  0  0  0  0
   12.9276    2.8000    0.0000 S   0  0  0  0  0  0  0  0  0  0  0  0
   14.1400    2.1000    0.0000 O   0  0  0  0  0  0  0  0  0  0  0  0
   12.9276    4.2000    0.0000 O   0  0  0  0  0  0  0  0  0  0  0  0
   12.9276    1.4000    0.0000 O   0  0  0  0  0  0  0  0  0  0  0  0
  1  2  2  0  0  0  0
  2  3  1  0  0  0  0
  3  4  2  0  0  0  0
  4  5  1  0  0  0  0
  5  1  1  0  0  0  0
  5  6  1  0  0  0  0
  1  7  1  0  0  0  0
  3  8  1  0  0  0  0
  8  9  2  0  0  0  0
  9 10  1  0  0  0  0
 10 11  2  0  0  0  0
 11 12  1  0  0  0  0
 12 13  2  0  0  0  0
 13  8  1  0  0  0  0
  7 14  1  0  0  0  0
 14 15  1  0  0  0  0
 15 16  1  0  0  0  0
 16 17  1  0  0  0  0
 17 18  1  0  0  0  0
 18  7  1  0  0  0  0
 16 19  1  0  0  0  0
 19 20  2  0  0  0  0
 20 21  1  0  0  0  0
 21 22  2  0  0  0  0
 22 23  1  0  0  0  0
 23 24  2  0  0  0  0
 24 19  1  0  0  0  0
 23 25  1  0  0  0  0
 25 26  1  0  0  0  0
 26 27  2  0  0  0  0
 27 24  1  0  0  0  0
 10 28  1  0  0  0  0
 28 29  1  0  0  0  0
 28 30  1  0  0  0  0
 28 31  1  0  0  0  0
 11 32  1  0  0  0  0
 33 34  2  0  0  0  0
 34 35  1  0  0  0  0
 35 36  2  0  0  0  0
 36 37  1  0  0  0  0
 37 38  2  0  0  0  0
 38 33  1  0  0  0  0
 34 39  1  0  0  0  0
 37 40  1  0  0  0  0
 40 41  1  0  0  0  0
 40 42  2  0  0  0  0
 40 43  2  0  0  0  0
M  END
>  <Mol_ID> (481)
2886

>  <Formula> (481)
C28H27F4N7O3S

>  <MolWeight> (481)
617.6176928

>  <Cat> (481)
S7704

>  <Name> (481)
LY2584702 tosylate

>  <Synonyms> (481)
N/A

>  <Target> (481)
S6 Kinase

>  <Form> (481)
Free Base

>  <CAS> (481)
1082949-68-5

>  <URL> (481)
http://www.selleckchem.com/products/ly2584702-tosylate.html

$$$$
RN486.cdx
csChFnd80/05071909292D

 45 51  0  0  0  0  0  0  0  0999 V2000
    2.6082    4.1976    0.0000 C   0  0  0  0  0  0  0  0  0  0  0  0
    2.6082    2.7976    0.0000 C   0  0  0  0  0  0  0  0  0  0  0  0
    3.8207    2.0976    0.0000 C   0  0  0  0  0  0  0  0  0  0  0  0
    5.0331    2.7976    0.0000 C   0  0  0  0  0  0  0  0  0  0  0  0
    5.0331    4.1976    0.0000 C   0  0  0  0  0  0  0  0  0  0  0  0
    3.8207    4.8976    0.0000 C   0  0  0  0  0  0  0  0  0  0  0  0
    6.2455    2.0976    0.0000 C   0  0  0  0  0  0  0  0  0  0  0  0
    7.4580    2.7976    0.0000 C   0  0  0  0  0  0  0  0  0  0  0  0
    7.4580    4.1976    0.0000 N   0  0  0  0  0  0  0  0  0  0  0  0
    6.2455    4.8976    0.0000 C   0  0  0  0  0  0  0  0  0  0  0  0
    6.2455    6.2927    0.0000 O   0  0  0  0  0  0  0  0  0  0  0  0
    8.6662    4.8951    0.0000 C   0  0  0  0  0  0  0  0  0  0  0  0
    3.8207    6.2927    0.0000 F   0  0  0  0  0  0  0  0  0  0  0  0
    1.4000    2.1000    0.0000 C   0  0  0  0  0  0  0  0  0  0  0  0
    0.0000    2.1000    0.0000 C   0  0  0  0  0  0  0  0  0  0  0  0
    0.7000    0.8876    0.0000 C   0  0  0  0  0  0  0  0  0  0  0  0
    9.8786    4.1951    0.0000 C   0  0  0  0  0  0  0  0  0  0  0  0
   11.0911    4.8951    0.0000 C   0  0  0  0  0  0  0  0  0  0  0  0
   11.0911    6.2951    0.0000 C   0  0  0  0  0  0  0  0  0  0  0  0
    9.8786    6.9951    0.0000 C   0  0  0  0  0  0  0  0  0  0  0  0
    8.6662    6.2951    0.0000 C   0  0  0  0  0  0  0  0  0  0  0  0
    9.8786    2.8000    0.0000 C   0  0  0  0  0  0  0  0  0  0  0  0
    8.6704    2.1024    0.0000 O   0  0  0  0  0  0  0  0  0  0  0  0
   12.2993    4.1976    0.0000 C   0  0  0  0  0  0  0  0  0  0  0  0
   12.2993    2.7976    0.0000 C   0  0  0  0  0  0  0  0  0  0  0  0
   13.5117    2.0976    0.0000 N   0  0  0  0  0  0  0  0  0  0  0  0
   14.7242    2.7976    0.0000 C   0  0  0  0  0  0  0  0  0  0  0  0
   14.7242    4.1976    0.0000 C   0  0  0  0  0  0  0  0  0  0  0  0
   13.5117    4.8976    0.0000 C   0  0  0  0  0  0  0  0  0  0  0  0
   13.5117    0.7024    0.0000 C   0  0  0  0  0  0  0  0  0  0  0  0
   15.9324    2.1000    0.0000 O   0  0  0  0  0  0  0  0  0  0  0  0
   15.9324    4.8951    0.0000 N   0  0  0  0  0  0  0  0  0  0  0  0
   17.1406    4.1976    0.0000 C   0  0  0  0  0  0  0  0  0  0  0  0
   17.1406    2.7976    0.0000 N   0  0  0  0  0  0  0  0  0  0  0  0
   18.3531    2.0976    0.0000 C   0  0  0  0  0  0  0  0  0  0  0  0
   19.5655    2.7976    0.0000 C   0  0  0  0  0  0  0  0  0  0  0  0
   19.5655    4.1976    0.0000 C   0  0  0  0  0  0  0  0  0  0  0  0
   18.3531    4.8976    0.0000 C   0  0  0  0  0  0  0  0  0  0  0  0
   20.7737    2.1000    0.0000 N   0  0  0  0  0  0  0  0  0  0  0  0
   20.7737    0.7000    0.0000 C   0  0  0  0  0  0  0  0  0  0  0  0
   21.9862    0.0000    0.0000 C   0  0  0  0  0  0  0  0  0  0  0  0
   23.1986    0.7000    0.0000 N   0  0  0  0  0  0  0  0  0  0  0  0
   23.1986    2.1000    0.0000 C   0  0  0  0  0  0  0  0  0  0  0  0
   21.9862    2.8000    0.0000 C   0  0  0  0  0  0  0  0  0  0  0  0
   24.4068    0.0024    0.0000 C   0  0  0  0  0  0  0  0  0  0  0  0
  1  2  2  0  0  0  0
  2  3  1  0  0  0  0
  3  4  2  0  0  0  0
  4  5  1  0  0  0  0
  5  6  2  0  0  0  0
  6  1  1  0  0  0  0
  4  7  1  0  0  0  0
  7  8  2  0  0  0  0
  8  9  1  0  0  0  0
  9 10  1  0  0  0  0
 10  5  1  0  0  0  0
 10 11  2  0  0  0  0
  9 12  1  0  0  0  0
  6 13  1  0  0  0  0
  2 14  1  0  0  0  0
 14 15  1  0  0  0  0
 15 16  1  0  0  0  0
 16 14  1  0  0  0  0
 12 17  2  0  0  0  0
 17 18  1  0  0  0  0
 18 19  2  0  0  0  0
 19 20  1  0  0  0  0
 20 21  2  0  0  0  0
 21 12  1  0  0  0  0
 17 22  1  0  0  0  0
 22 23  1  0  0  0  0
 18 24  1  0  0  0  0
 24 25  2  0  0  0  0
 25 26  1  0  0  0  0
 26 27  1  0  0  0  0
 27 28  1  0  0  0  0
 28 29  2  0  0  0  0
 29 24  1  0  0  0  0
 26 30  1  0  0  0  0
 27 31  2  0  0  0  0
 28 32  1  0  0  0  0
 32 33  1  0  0  0  0
 33 34  2  0  0  0  0
 34 35  1  0  0  0  0
 35 36  2  0  0  0  0
 36 37  1  0  0  0  0
 37 38  2  0  0  0  0
 38 33  1  0  0  0  0
 36 39  1  0  0  0  0
 39 40  1  0  0  0  0
 40 41  1  0  0  0  0
 41 42  1  0  0  0  0
 42 43  1  0  0  0  0
 43 44  1  0  0  0  0
 44 39  1  0  0  0  0
 42 45  1  0  0  0  0
M  END
>  <Mol_ID> (482)
2887

>  <Formula> (482)
C35H35FN6O3

>  <MolWeight> (482)
606.6892032

>  <Cat> (482)
S7080

>  <Name> (482)
RN486

>  <Synonyms> (482)
N/A

>  <Target> (482)
BTK

>  <Form> (482)
Free Base

>  <CAS> (482)
no

>  <URL> (482)
http://www.selleckchem.com/products/rn486.html

$$$$
Dovitinib Lactate.cdx
csChFnd80/05071909292D

 35 38  0  0  0  0  0  0  0  0999 V2000
    2.4650    8.1822    0.0000 C   0  0  0  0  0  0  0  0  0  0  0  0
    2.4238    9.5816    0.0000 C   0  0  0  0  0  0  0  0  0  0  0  0
    1.1913   10.2456    0.0000 C   0  0  0  0  0  0  0  0  0  0  0  0
    0.0000    9.5103    0.0000 C   0  0  0  0  0  0  0  0  0  0  0  0
    0.0412    8.1109    0.0000 C   0  0  0  0  0  0  0  0  0  0  0  0
    1.2737    7.4469    0.0000 C   0  0  0  0  0  0  0  0  0  0  0  0
    3.6975    7.5182    0.0000 C   0  0  0  0  0  0  0  0  0  0  0  0
    4.8888    8.2536    0.0000 C   0  0  0  0  0  0  0  0  0  0  0  0
    4.8476    9.6530    0.0000 C   0  0  0  0  0  0  0  0  0  0  0  0
    3.6151   10.3170    0.0000 N   0  0  0  0  0  0  0  0  0  0  0  0
    6.0390   10.3884    0.0000 O   0  0  0  0  0  0  0  0  0  0  0  0
    3.7387    6.1188    0.0000 N   0  0  0  0  0  0  0  0  0  0  0  0
    1.3149    6.0475    0.0000 F   0  0  0  0  0  0  0  0  0  0  0  0
    6.1213    7.5896    0.0000 C   0  0  0  0  0  0  0  0  0  0  0  0
    6.3086    6.2021    0.0000 N   0  0  0  0  0  0  0  0  0  0  0  0
    7.6860    5.9515    0.0000 C   0  0  0  0  0  0  0  0  0  0  0  0
    8.3500    7.1840    0.0000 C   0  0  0  0  0  0  0  0  0  0  0  0
    7.3830    8.1964    0.0000 N   0  0  0  0  0  0  0  0  0  0  0  0
    8.4213    4.7602    0.0000 C   0  0  0  0  0  0  0  0  0  0  0  0
    9.8207    4.8014    0.0000 C   0  0  0  0  0  0  0  0  0  0  0  0
   10.4848    6.0339    0.0000 C   0  0  0  0  0  0  0  0  0  0  0  0
    9.7494    7.2252    0.0000 C   0  0  0  0  0  0  0  0  0  0  0  0
   11.8842    6.0751    0.0000 N   0  0  0  0  0  0  0  0  0  0  0  0
   12.6195    4.8838    0.0000 C   0  0  0  0  0  0  0  0  0  0  0  0
   14.0189    4.9250    0.0000 C   0  0  0  0  0  0  0  0  0  0  0  0
   14.6829    6.1575    0.0000 N   0  0  0  0  0  0  0  0  0  0  0  0
   13.9476    7.3488    0.0000 C   0  0  0  0  0  0  0  0  0  0  0  0
   12.5482    7.3076    0.0000 C   0  0  0  0  0  0  0  0  0  0  0  0
   16.0823    6.1987    0.0000 C   0  0  0  0  0  0  0  0  0  0  0  0
    4.3592    1.4000    0.0000 C   0  0  0  0  0  0  0  0  0  0  0  0
    5.5716    2.1000    0.0000 C   0  0  3  0  0  0  0  0  0  0  0  0
    6.7840    1.4000    0.0000 C   0  0  0  0  0  0  0  0  0  0  0  0
    7.9965    2.1000    0.0000 O   0  0  0  0  0  0  0  0  0  0  0  0
    6.7840    0.0000    0.0000 O   0  0  0  0  0  0  0  0  0  0  0  0
    5.5716    3.5000    0.0000 O   0  0  0  0  0  0  0  0  0  0  0  0
  1  2  2  0  0  0  0
  2  3  1  0  0  0  0
  3  4  2  0  0  0  0
  4  5  1  0  0  0  0
  5  6  2  0  0  0  0
  6  1  1  0  0  0  0
  1  7  1  0  0  0  0
  7  8  2  0  0  0  0
  8  9  1  0  0  0  0
  9 10  1  0  0  0  0
 10  2  1  0  0  0  0
  9 11  2  0  0  0  0
  7 12  1  0  0  0  0
  6 13  1  0  0  0  0
  8 14  1  0  0  0  0
 14 15  2  0  0  0  0
 15 16  1  0  0  0  0
 16 17  2  0  0  0  0
 17 18  1  0  0  0  0
 18 14  1  0  0  0  0
 16 19  1  0  0  0  0
 19 20  2  0  0  0  0
 20 21  1  0  0  0  0
 21 22  2  0  0  0  0
 22 17  1  0  0  0  0
 21 23  1  0  0  0  0
 23 24  1  0  0  0  0
 24 25  1  0  0  0  0
 25 26  1  0  0  0  0
 26 27  1  0  0  0  0
 27 28  1  0  0  0  0
 28 23  1  0  0  0  0
 26 29  1  0  0  0  0
 30 31  1  0  0  0  0
 31 32  1  0  0  0  0
 32 33  1  0  0  0  0
 32 34  2  0  0  0  0
 31 35  1  0  0  0  0
M  END
>  <Mol_ID> (483)
2888

>  <Formula> (483)
C24H27FN6O4

>  <MolWeight> (483)
482.5073832

>  <Cat> (483)
S7765

>  <Name> (483)
Dovitinib (TKI258) Lactate

>  <Synonyms> (483)
N/A

>  <Target> (483)
FLT3

>  <Form> (483)
Lactate

>  <CAS> (483)
915769-50-5

>  <URL> (483)
http://www.selleckchem.com/products/dovitinib-tki258-lactate.html

$$$$
BLZ945.cdx
csChFnd80/05071909292D

 28 31  0  0  0  0  0  0  0  0999 V2000
    3.6373    2.1000    0.0000 C   0  0  0  0  0  0  0  0  0  0  0  0
    3.6373    0.7000    0.0000 N   0  0  0  0  0  0  0  0  0  0  0  0
    4.8497    0.0000    0.0000 C   0  0  0  0  0  0  0  0  0  0  0  0
    6.0622    0.7000    0.0000 C   0  0  0  0  0  0  0  0  0  0  0  0
    6.0622    2.1000    0.0000 C   0  0  0  0  0  0  0  0  0  0  0  0
    4.8497    2.8000    0.0000 C   0  0  0  0  0  0  0  0  0  0  0  0
    2.4249    2.8000    0.0000 C   0  0  0  0  0  0  0  0  0  0  0  0
    1.2124    2.1000    0.0000 N   0  0  0  0  0  0  0  0  0  0  0  0
    0.0000    2.8000    0.0000 C   0  0  0  0  0  0  0  0  0  0  0  0
    2.4249    4.2000    0.0000 O   0  0  0  0  0  0  0  0  0  0  0  0
    7.2746    2.8000    0.0000 O   0  0  0  0  0  0  0  0  0  0  0  0
    8.4870    2.1000    0.0000 C   0  0  0  0  0  0  0  0  0  0  0  0
    8.4870    0.7000    0.0000 C   0  0  0  0  0  0  0  0  0  0  0  0
    9.6995    0.0000    0.0000 C   0  0  0  0  0  0  0  0  0  0  0  0
   10.9119    0.7000    0.0000 C   0  0  0  0  0  0  0  0  0  0  0  0
   10.9119    2.1000    0.0000 C   0  0  0  0  0  0  0  0  0  0  0  0
    9.6995    2.8000    0.0000 C   0  0  0  0  0  0  0  0  0  0  0  0
   12.2434    0.2674    0.0000 N   0  0  0  0  0  0  0  0  0  0  0  0
   13.0663    1.4000    0.0000 C   0  0  0  0  0  0  0  0  0  0  0  0
   12.2434    2.5326    0.0000 S   0  0  0  0  0  0  0  0  0  0  0  0
   14.4663    1.4000    0.0000 N   0  0  0  0  0  0  0  0  0  0  0  0
   15.1663    2.6124    0.0000 C   0  0  2  0  0  0  0  0  0  0  0  0
   16.5663    2.6124    0.0000 C   0  0  0  0  0  0  0  0  0  0  0  0
   17.2663    3.8249    0.0000 C   0  0  0  0  0  0  0  0  0  0  0  0
   16.5663    5.0373    0.0000 C   0  0  0  0  0  0  0  0  0  0  0  0
   15.1663    5.0373    0.0000 C   0  0  0  0  0  0  0  0  0  0  0  0
   14.4663    3.8249    0.0000 C   0  0  1  0  0  0  0  0  0  0  0  0
   13.0663    3.8249    0.0000 O   0  0  0  0  0  0  0  0  0  0  0  0
  1  2  2  0  0  0  0
  2  3  1  0  0  0  0
  3  4  2  0  0  0  0
  4  5  1  0  0  0  0
  5  6  2  0  0  0  0
  6  1  1  0  0  0  0
  1  7  1  0  0  0  0
  7  8  1  0  0  0  0
  8  9  1  0  0  0  0
  7 10  2  0  0  0  0
  5 11  1  0  0  0  0
 11 12  1  0  0  0  0
 12 13  1  0  0  0  0
 13 14  2  0  0  0  0
 14 15  1  0  0  0  0
 15 16  2  0  0  0  0
 16 17  1  0  0  0  0
 17 12  2  0  0  0  0
 15 18  1  0  0  0  0
 18 19  2  0  0  0  0
 19 20  1  0  0  0  0
 20 16  1  0  0  0  0
 19 21  1  0  0  0  0
 22 21  1  1  0  0  0
 22 23  1  0  0  0  0
 23 24  1  0  0  0  0
 24 25  1  0  0  0  0
 25 26  1  0  0  0  0
 26 27  1  0  0  0  0
 27 22  1  0  0  0  0
 27 28  1  6  0  0  0
M  END
>  <Mol_ID> (484)
2889

>  <Formula> (484)
C20H22N4O3S

>  <MolWeight> (484)
398.47868

>  <Cat> (484)
S7725

>  <Name> (484)
BLZ945

>  <Synonyms> (484)
N/A

>  <Target> (484)
CSF-1R

>  <Form> (484)
Free Base

>  <CAS> (484)
953769-46-5

>  <URL> (484)
http://www.selleckchem.com/products/blz945.html

$$$$
LY2090314.cdx
csChFnd80/05071909292D

 38 44  0  0  0  0  0  0  0  0999 V2000
    4.4967    3.6266    0.0000 C   0  0  0  0  0  0  0  0  0  0  0  0
    5.0384    2.3841    0.0000 N   0  0  0  0  0  0  0  0  0  0  0  0
    6.4187    2.0323    0.0000 C   0  0  0  0  0  0  0  0  0  0  0  0
    7.5262    2.8905    0.0000 C   0  0  0  0  0  0  0  0  0  0  0  0
    7.5373    4.2887    0.0000 C   0  0  0  0  0  0  0  0  0  0  0  0
    6.4598    5.1670    0.0000 N   0  0  0  0  0  0  0  0  0  0  0  0
    5.0702    4.9037    0.0000 C   0  0  0  0  0  0  0  0  0  0  0  0
    8.7441    2.1946    0.0000 C   0  0  0  0  0  0  0  0  0  0  0  0
    9.9537    2.9046    0.0000 C   0  0  0  0  0  0  0  0  0  0  0  0
    9.9416    4.3063    0.0000 C   0  0  0  0  0  0  0  0  0  0  0  0
    8.7187    4.9945    0.0000 C   0  0  0  0  0  0  0  0  0  0  0  0
    8.4490    6.3196    0.0000 C   0  0  0  0  0  0  0  0  0  0  0  0
    7.0390    6.4568    0.0000 C   0  0  0  0  0  0  0  0  0  0  0  0
    4.1539    1.2990    0.0000 C   0  0  0  0  0  0  0  0  0  0  0  0
    2.7617    1.5241    0.0000 N   0  0  0  0  0  0  0  0  0  0  0  0
    4.6477    0.0000    0.0000 O   0  0  0  0  0  0  0  0  0  0  0  0
    2.2581    2.8642    0.0000 C   0  0  0  0  0  0  0  0  0  0  0  0
    0.8822    3.0866    0.0000 C   0  0  0  0  0  0  0  0  0  0  0  0
    0.0000    2.0044    0.0000 C   0  0  0  0  0  0  0  0  0  0  0  0
    0.4969    0.6974    0.0000 C   0  0  0  0  0  0  0  0  0  0  0  0
    1.8893    0.4649    0.0000 C   0  0  0  0  0  0  0  0  0  0  0  0
    9.3335    7.4047    0.0000 C   0  0  0  0  0  0  0  0  0  0  0  0
    8.8977    8.7779    0.0000 C   0  0  0  0  0  0  0  0  0  0  0  0
   10.0368    9.6000    0.0000 N   0  0  0  0  0  0  0  0  0  0  0  0
   11.1389    8.7016    0.0000 C   0  0  0  0  0  0  0  0  0  0  0  0
   10.6453    7.3823    0.0000 C   0  0  0  0  0  0  0  0  0  0  0  0
   12.4871    9.0789    0.0000 O   0  0  0  0  0  0  0  0  0  0  0  0
    7.5688    9.2184    0.0000 O   0  0  0  0  0  0  0  0  0  0  0  0
   11.4645    6.2470    0.0000 C   0  0  0  0  0  0  0  0  0  0  0  0
   11.0877    4.9364    0.0000 C   0  0  0  0  0  0  0  0  0  0  0  0
   12.2231    4.1385    0.0000 N   0  0  0  0  0  0  0  0  0  0  0  0
   13.3711    4.9482    0.0000 C   0  0  0  0  0  0  0  0  0  0  0  0
   12.8802    6.2757    0.0000 N   0  0  0  0  0  0  0  0  0  0  0  0
   14.7422    4.7113    0.0000 C   0  0  0  0  0  0  0  0  0  0  0  0
   15.6280    5.7743    0.0000 C   0  0  0  0  0  0  0  0  0  0  0  0
   15.2193    7.0910    0.0000 C   0  0  0  0  0  0  0  0  0  0  0  0
   13.8356    7.3301    0.0000 C   0  0  0  0  0  0  0  0  0  0  0  0
   11.1716    2.2143    0.0000 F   0  0  0  0  0  0  0  0  0  0  0  0
  1  2  1  0  0  0  0
  2  3  1  0  0  0  0
  3  4  1  0  0  0  0
  4  5  2  0  0  0  0
  5  6  1  0  0  0  0
  6  7  1  0  0  0  0
  7  1  1  0  0  0  0
  4  8  1  0  0  0  0
  8  9  2  0  0  0  0
  9 10  1  0  0  0  0
 10 11  2  0  0  0  0
 11  5  1  0  0  0  0
 11 12  1  0  0  0  0
 12 13  2  0  0  0  0
 13  6  1  0  0  0  0
  2 14  1  0  0  0  0
 14 15  1  0  0  0  0
 14 16  2  0  0  0  0
 15 17  1  0  0  0  0
 17 18  1  0  0  0  0
 18 19  1  0  0  0  0
 19 20  1  0  0  0  0
 20 21  1  0  0  0  0
 21 15  1  0  0  0  0
 12 22  1  0  0  0  0
 22 23  1  0  0  0  0
 23 24  1  0  0  0  0
 24 25  1  0  0  0  0
 25 26  1  0  0  0  0
 26 22  2  0  0  0  0
 25 27  2  0  0  0  0
 23 28  2  0  0  0  0
 26 29  1  0  0  0  0
 29 30  2  0  0  0  0
 30 31  1  0  0  0  0
 31 32  2  0  0  0  0
 32 33  1  0  0  0  0
 33 29  1  0  0  0  0
 32 34  1  0  0  0  0
 34 35  2  0  0  0  0
 35 36  1  0  0  0  0
 36 37  2  0  0  0  0
 37 33  1  0  0  0  0
  9 38  1  0  0  0  0
M  END
>  <Mol_ID> (485)
2891

>  <Formula> (485)
C28H25FN6O3

>  <MolWeight> (485)
512.5349032

>  <Cat> (485)
S7063

>  <Name> (485)
LY2090314

>  <Synonyms> (485)
603288-22-8

>  <Target> (485)
GSK-3

>  <Form> (485)
Free Base

>  <CAS> (485)
603288-22-8

>  <URL> (485)
http://www.selleckchem.com/products/ly2090314.html

$$$$
CH5183284 (Debio 1347).cdx
csChFnd80/05071909292D

 27 31  0  0  0  0  0  0  0  0999 V2000
    6.7305    2.9005    0.0000 C   0  0  0  0  0  0  0  0  0  0  0  0
    6.8783    1.5088    0.0000 C   0  0  0  0  0  0  0  0  0  0  0  0
    8.2480    1.2189    0.0000 N   0  0  0  0  0  0  0  0  0  0  0  0
    8.9469    2.4326    0.0000 N   0  0  0  0  0  0  0  0  0  0  0  0
    8.0093    3.4716    0.0000 C   0  0  0  0  0  0  0  0  0  0  0  0
    8.2980    4.8365    0.0000 N   0  0  0  0  0  0  0  0  0  0  0  0
   10.3342    2.5800    0.0000 C   0  0  0  0  0  0  0  0  0  0  0  0
   11.1580    1.4487    0.0000 C   0  0  0  0  0  0  0  0  0  0  0  0
   12.5502    1.5963    0.0000 C   0  0  0  0  0  0  0  0  0  0  0  0
   13.1185    2.8757    0.0000 C   0  0  0  0  0  0  0  0  0  0  0  0
   12.2946    4.0076    0.0000 C   0  0  0  0  0  0  0  0  0  0  0  0
   10.9024    3.8601    0.0000 C   0  0  0  0  0  0  0  0  0  0  0  0
   13.5915    0.6604    0.0000 N   0  0  0  0  0  0  0  0  0  0  0  0
   14.8035    1.3621    0.0000 C   0  0  0  0  0  0  0  0  0  0  0  0
   14.5110    2.7306    0.0000 N   0  0  0  0  0  0  0  0  0  0  0  0
   16.0787    0.7961    0.0000 C   0  0  0  0  0  0  0  0  0  0  0  0
    5.5222    3.5980    0.0000 C   0  0  0  0  0  0  0  0  0  0  0  0
    5.5222    4.9927    0.0000 O   0  0  0  0  0  0  0  0  0  0  0  0
    4.3136    2.9002    0.0000 C   0  0  0  0  0  0  0  0  0  0  0  0
    3.0349    3.4673    0.0000 N   0  0  0  0  0  0  0  0  0  0  0  0
    2.0990    2.4261    0.0000 C   0  0  0  0  0  0  0  0  0  0  0  0
    2.8000    1.2142    0.0000 C   0  0  0  0  0  0  0  0  0  0  0  0
    4.1692    1.5065    0.0000 C   0  0  0  0  0  0  0  0  0  0  0  0
    0.6990    2.4249    0.0000 C   0  0  0  0  0  0  0  0  0  0  0  0
    0.0000    1.2118    0.0000 C   0  0  0  0  0  0  0  0  0  0  0  0
    0.7010    0.0000    0.0000 C   0  0  0  0  0  0  0  0  0  0  0  0
    2.1010    0.0012    0.0000 C   0  0  0  0  0  0  0  0  0  0  0  0
  1  2  1  0  0  0  0
  2  3  2  0  0  0  0
  3  4  1  0  0  0  0
  4  5  1  0  0  0  0
  5  1  2  0  0  0  0
  5  6  1  0  0  0  0
  4  7  1  0  0  0  0
  7  8  2  0  0  0  0
  8  9  1  0  0  0  0
  9 10  2  0  0  0  0
 10 11  1  0  0  0  0
 11 12  2  0  0  0  0
 12  7  1  0  0  0  0
  9 13  1  0  0  0  0
 13 14  1  0  0  0  0
 14 15  2  0  0  0  0
 15 10  1  0  0  0  0
 14 16  1  0  0  0  0
  1 17  1  0  0  0  0
 17 18  2  0  0  0  0
 17 19  1  0  0  0  0
 19 20  1  0  0  0  0
 20 21  1  0  0  0  0
 21 22  2  0  0  0  0
 22 23  1  0  0  0  0
 23 19  2  0  0  0  0
 21 24  1  0  0  0  0
 24 25  2  0  0  0  0
 25 26  1  0  0  0  0
 26 27  2  0  0  0  0
 27 22  1  0  0  0  0
M  END
>  <Mol_ID> (486)
2892

>  <Formula> (486)
C20H16N6O

>  <MolWeight> (486)
356.38064

>  <Cat> (486)
S7665

>  <Name> (486)
CH5183284 (Debio-1347)

>  <Synonyms> (486)
FF284

>  <Target> (486)
FGFR

>  <Form> (486)
Free Base

>  <CAS> (486)
1265229-25-1

>  <URL> (486)
http://www.selleckchem.com/products/ch5183284-debio-1347.html

$$$$
ANA-12.cdx
csChFnd80/05071909292D

 29 32  0  0  0  0  0  0  0  0999 V2000
    0.0000    6.5386    0.0000 C   0  0  0  0  0  0  0  0  0  0  0  0
    0.0000    5.1386    0.0000 C   0  0  0  0  0  0  0  0  0  0  0  0
    1.2124    4.4386    0.0000 C   0  0  0  0  0  0  0  0  0  0  0  0
    2.4249    5.1386    0.0000 C   0  0  0  0  0  0  0  0  0  0  0  0
    2.4249    6.5386    0.0000 C   0  0  0  0  0  0  0  0  0  0  0  0
    1.2124    7.2386    0.0000 C   0  0  0  0  0  0  0  0  0  0  0  0
    3.6373    7.2386    0.0000 N   0  0  0  0  0  0  0  0  0  0  0  0
    3.6373    8.6337    0.0000 C   0  0  0  0  0  0  0  0  0  0  0  0
    4.8455    9.3313    0.0000 C   0  0  0  0  0  0  0  0  0  0  0  0
    6.1245    8.7619    0.0000 S   0  0  0  0  0  0  0  0  0  0  0  0
    7.0613    9.8023    0.0000 C   0  0  0  0  0  0  0  0  0  0  0  0
    6.3613   11.0147    0.0000 C   0  0  0  0  0  0  0  0  0  0  0  0
    4.9919   10.7236    0.0000 C   0  0  0  0  0  0  0  0  0  0  0  0
    8.4613    9.8023    0.0000 C   0  0  0  0  0  0  0  0  0  0  0  0
    9.1613   11.0147    0.0000 C   0  0  0  0  0  0  0  0  0  0  0  0
    8.4613   12.2272    0.0000 C   0  0  0  0  0  0  0  0  0  0  0  0
    7.0613   12.2272    0.0000 C   0  0  0  0  0  0  0  0  0  0  0  0
    2.4291    9.3313    0.0000 O   0  0  0  0  0  0  0  0  0  0  0  0
    3.6331    4.4410    0.0000 C   0  0  0  0  0  0  0  0  0  0  0  0
    4.8413    5.1386    0.0000 O   0  0  0  0  0  0  0  0  0  0  0  0
    3.6331    3.0459    0.0000 N   0  0  0  0  0  0  0  0  0  0  0  0
    4.8413    2.3483    0.0000 C   0  0  3  0  0  0  0  0  0  0  0  0
    4.7367    0.9522    0.0000 C   0  0  0  0  0  0  0  0  0  0  0  0
    5.7630    0.0000    0.0000 N   0  0  0  0  0  0  0  0  0  0  0  0
    7.1473    0.2087    0.0000 C   0  0  0  0  0  0  0  0  0  0  0  0
    7.8473    1.4211    0.0000 C   0  0  0  0  0  0  0  0  0  0  0  0
    7.3359    2.7243    0.0000 C   0  0  0  0  0  0  0  0  0  0  0  0
    5.9981    3.1370    0.0000 C   0  0  0  0  0  0  0  0  0  0  0  0
    3.4380    0.4425    0.0000 O   0  0  0  0  0  0  0  0  0  0  0  0
  1  2  2  0  0  0  0
  2  3  1  0  0  0  0
  3  4  2  0  0  0  0
  4  5  1  0  0  0  0
  5  6  2  0  0  0  0
  6  1  1  0  0  0  0
  5  7  1  0  0  0  0
  7  8  1  0  0  0  0
  8  9  1  0  0  0  0
  9 10  1  0  0  0  0
 10 11  1  0  0  0  0
 11 12  2  0  0  0  0
 12 13  1  0  0  0  0
 13  9  2  0  0  0  0
 11 14  1  0  0  0  0
 14 15  2  0  0  0  0
 15 16  1  0  0  0  0
 16 17  2  0  0  0  0
 17 12  1  0  0  0  0
  8 18  2  0  0  0  0
  4 19  1  0  0  0  0
 19 20  2  0  0  0  0
 19 21  1  0  0  0  0
 21 22  1  0  0  0  0
 22 23  1  0  0  0  0
 23 24  1  0  0  0  0
 24 25  1  0  0  0  0
 25 26  1  0  0  0  0
 26 27  1  0  0  0  0
 27 28  1  0  0  0  0
 28 22  1  0  0  0  0
 23 29  2  0  0  0  0
M  END
>  <Mol_ID> (487)
2903

>  <Formula> (487)
C22H21N3O3S

>  <MolWeight> (487)
407.48544

>  <Cat> (487)
S7745

>  <Name> (487)
ANA-12

>  <Synonyms> (487)
N/A

>  <Target> (487)
Trk receptor

>  <Form> (487)
Free Base

>  <CAS> (487)
219766-25-3

>  <URL> (487)
http://www.selleckchem.com/products/ana-12.html

$$$$
LM-3573.cdx
csChFnd80/05071909292D

 34 36  0  0  0  0  0  0  0  0999 V2000
    0.0132    3.7576    0.0000 C   0  0  0  0  0  0  0  0  0  0  0  0
    0.0000    2.3576    0.0000 C   0  0  0  0  0  0  0  0  0  0  0  0
    1.2058    1.6462    0.0000 C   0  0  0  0  0  0  0  0  0  0  0  0
    2.4248    2.3348    0.0000 C   0  0  0  0  0  0  0  0  0  0  0  0
    2.4379    3.7347    0.0000 C   0  0  0  0  0  0  0  0  0  0  0  0
    1.2321    4.4461    0.0000 C   0  0  0  0  0  0  0  0  0  0  0  0
    3.6569    4.4233    0.0000 N   0  0  0  0  0  0  0  0  0  0  0  0
    3.6701    5.8232    0.0000 C   0  0  0  0  0  0  0  0  0  0  0  0
    4.8891    6.5118    0.0000 C   0  0  0  0  0  0  0  0  0  0  0  0
    6.1626    5.9304    0.0000 S   0  0  0  0  0  0  0  0  0  0  0  0
    7.1091    6.9619    0.0000 C   0  0  0  0  0  0  0  0  0  0  0  0
    6.4206    8.1809    0.0000 N   0  0  0  0  0  0  0  0  0  0  0  0
    5.0485    7.9027    0.0000 C   0  0  0  0  0  0  0  0  0  0  0  0
    2.4643    6.5346    0.0000 O   0  0  0  0  0  0  0  0  0  0  0  0
    1.2453    5.8461    0.0000 C   0  0  0  0  0  0  0  0  0  0  0  0
    3.6306    1.6234    0.0000 Cl  0  0  0  0  0  0  0  0  0  0  0  0
    8.5000    6.8025    0.0000 N   0  0  0  0  0  0  0  0  0  0  0  0
    9.0574    5.5182    0.0000 C   0  0  0  0  0  0  0  0  0  0  0  0
    8.2239    4.3934    0.0000 N   0  0  0  0  0  0  0  0  0  0  0  0
    8.7812    3.1091    0.0000 C   0  0  0  0  0  0  0  0  0  0  0  0
   10.1721    2.9497    0.0000 N   0  0  0  0  0  0  0  0  0  0  0  0
   11.0057    4.0745    0.0000 C   0  0  0  0  0  0  0  0  0  0  0  0
   10.4483    5.3588    0.0000 C   0  0  0  0  0  0  0  0  0  0  0  0
    7.9477    1.9843    0.0000 C   0  0  0  0  0  0  0  0  0  0  0  0
   12.3965    3.9151    0.0000 N   0  0  0  0  0  0  0  0  0  0  0  0
   12.9539    2.6308    0.0000 C   0  0  0  0  0  0  0  0  0  0  0  0
   14.3448    2.4714    0.0000 C   0  0  0  0  0  0  0  0  0  0  0  0
   15.1783    3.5962    0.0000 N   0  0  0  0  0  0  0  0  0  0  0  0
   14.6210    4.8805    0.0000 C   0  0  0  0  0  0  0  0  0  0  0  0
   13.2301    5.0399    0.0000 C   0  0  0  0  0  0  0  0  0  0  0  0
   16.5692    3.4367    0.0000 C   0  0  0  0  0  0  0  0  0  0  0  0
   17.1266    2.1525    0.0000 C   0  0  0  0  0  0  0  0  0  0  0  0
   18.5175    1.9930    0.0000 O   0  0  0  0  0  0  0  0  0  0  0  0
   10.1597    0.0000    0.0000 O   0  0  0  0  0  0  0  0  0  0  0  0
  1  2  2  0  0  0  0
  2  3  1  0  0  0  0
  3  4  2  0  0  0  0
  4  5  1  0  0  0  0
  5  6  2  0  0  0  0
  6  1  1  0  0  0  0
  5  7  1  0  0  0  0
  7  8  1  0  0  0  0
  8  9  1  0  0  0  0
  9 10  1  0  0  0  0
 10 11  1  0  0  0  0
 11 12  2  0  0  0  0
 12 13  1  0  0  0  0
 13  9  2  0  0  0  0
  8 14  2  0  0  0  0
  6 15  1  0  0  0  0
  4 16  1  0  0  0  0
 11 17  1  0  0  0  0
 17 18  1  0  0  0  0
 18 19  2  0  0  0  0
 19 20  1  0  0  0  0
 20 21  2  0  0  0  0
 21 22  1  0  0  0  0
 22 23  2  0  0  0  0
 23 18  1  0  0  0  0
 20 24  1  0  0  0  0
 22 25  1  0  0  0  0
 25 26  1  0  0  0  0
 26 27  1  0  0  0  0
 27 28  1  0  0  0  0
 28 29  1  0  0  0  0
 29 30  1  0  0  0  0
 30 25  1  0  0  0  0
 28 31  1  0  0  0  0
 31 32  1  0  0  0  0
 32 33  1  0  0  0  0
M  END
>  <Mol_ID> (488)
2904

>  <Formula> (488)
C22H28ClN7O3S

>  <MolWeight> (488)
506.02082

>  <Cat> (488)
S7782

>  <Name> (488)
Dasatinib Monohydrate

>  <Synonyms> (488)
BMS-354825 Monohydrate

>  <Target> (488)
Src

>  <Form> (488)
Monohydrate

>  <CAS> (488)
863127-77-9

>  <URL> (488)
http://www.selleckchem.com/products/dasatinib-monohydrate.html

$$$$
LM-3572.cdx
csChFnd80/05071909292D

 29 31  0  0  0  0  0  0  0  0999 V2000
    3.5333    2.2616    0.0000 C   0  0  0  0  0  0  0  0  0  0  0  0
    3.5974    0.8631    0.0000 C   0  0  0  0  0  0  0  0  0  0  0  0
    6.0114    0.9737    0.0000 C   0  0  0  0  0  0  0  0  0  0  0  0
    5.9473    2.3722    0.0000 C   0  0  0  0  0  0  0  0  0  0  0  0
    4.7009    3.0229    0.0000 N   0  0  0  0  0  0  0  0  0  0  0  0
    2.2901    2.9054    0.0000 C   0  0  0  0  0  0  0  0  0  0  0  0
    1.1110    2.1507    0.0000 C   0  0  0  0  0  0  0  0  0  0  0  0
    1.1750    0.7521    0.0000 C   0  0  0  0  0  0  0  0  0  0  0  0
    2.4182    0.1084    0.0000 C   0  0  0  0  0  0  0  0  0  0  0  0
    0.0000    0.0000    0.0000 F   0  0  0  0  0  0  0  0  0  0  0  0
    7.1236    3.1224    0.0000 O   0  0  0  0  0  0  0  0  0  0  0  0
    8.4211    1.0932    0.0000 C   0  0  0  0  0  0  0  0  0  0  0  0
    9.5348    0.2448    0.0000 N   0  0  0  0  0  0  0  0  0  0  0  0
   10.6858    1.0418    0.0000 C   0  0  0  0  0  0  0  0  0  0  0  0
   10.2835    2.3828    0.0000 C   0  0  0  0  0  0  0  0  0  0  0  0
    8.8838    2.4145    0.0000 C   0  0  0  0  0  0  0  0  0  0  0  0
    8.0896    3.5615    0.0000 C   0  0  0  0  0  0  0  0  0  0  0  0
   12.0025    0.5807    0.0000 C   0  0  0  0  0  0  0  0  0  0  0  0
   11.1379    3.1165    0.0000 C   0  0  0  0  0  0  0  0  0  0  0  0
   12.6134    2.2991    0.0000 N   0  0  0  0  0  0  0  0  0  0  0  0
   14.0590    3.1683    0.0000 C   0  0  0  0  0  0  0  0  0  0  0  0
   11.1080    4.8029    0.0000 O   0  0  0  0  0  0  0  0  0  0  0  0
   15.5344    2.3510    0.0000 C   0  0  0  0  0  0  0  0  0  0  0  0
   16.9800    3.2201    0.0000 N   0  0  0  0  0  0  0  0  0  0  0  0
    7.2546    0.3299    0.0000 C   0  0  0  0  0  0  0  0  0  0  0  0
   18.2004    2.5441    0.0000 C   0  0  0  0  0  0  0  0  0  0  0  0
   16.9552    4.6150    0.0000 C   0  0  0  0  0  0  0  0  0  0  0  0
   19.3961    3.2630    0.0000 C   0  0  0  0  0  0  0  0  0  0  0  0
   18.1572    5.3234    0.0000 C   0  0  0  0  0  0  0  0  0  0  0  0
  1  2  2  0  0  0  0
  3  4  1  0  0  0  0
  4  5  1  0  0  0  0
  5  1  1  0  0  0  0
  2  3  1  0  0  0  0
  1  6  1  0  0  0  0
  6  7  2  0  0  0  0
  7  8  1  0  0  0  0
  8  9  2  0  0  0  0
  9  2  1  0  0  0  0
  8 10  1  0  0  0  0
  4 11  2  0  0  0  0
 12 13  1  0  0  0  0
 13 14  1  0  0  0  0
 14 15  2  0  0  0  0
 15 16  1  0  0  0  0
 16 12  2  0  0  0  0
 16 17  1  0  0  0  0
 14 18  1  0  0  0  0
 15 19  1  0  0  0  0
 19 20  1  0  0  0  0
 20 21  1  0  0  0  0
 19 22  2  0  0  0  0
 21 23  1  0  0  0  0
 23 24  1  0  0  0  0
  3 25  2  0  0  0  0
 25 12  1  0  0  0  0
 24 26  1  0  0  0  0
 24 27  1  0  0  0  0
 26 28  1  0  0  0  0
 27 29  1  0  0  0  0
M  END
>  <Mol_ID> (489)
2905

>  <Formula> (489)
C22H27FN4O2

>  <MolWeight> (489)
398.4737832

>  <Cat> (489)
S7781

>  <Name> (489)
Sunitinib

>  <Synonyms> (489)
SU11248

>  <Target> (489)
PDGFR

>  <Form> (489)
Free Base

>  <CAS> (489)
557795-19-4

>  <URL> (489)
http://www.selleckchem.com/products/sunitinib.html

$$$$
Erlotinib free Base.cdx
csChFnd80/05071909292D

 29 31  0  0  0  0  0  0  0  0999 V2000
    6.0622    6.3000    0.0000 C   0  0  0  0  0  0  0  0  0  0  0  0
    6.0622    4.9000    0.0000 C   0  0  0  0  0  0  0  0  0  0  0  0
    7.2746    4.2000    0.0000 C   0  0  0  0  0  0  0  0  0  0  0  0
    8.4870    4.9000    0.0000 C   0  0  0  0  0  0  0  0  0  0  0  0
    8.4870    6.3000    0.0000 C   0  0  0  0  0  0  0  0  0  0  0  0
    7.2746    7.0000    0.0000 C   0  0  0  0  0  0  0  0  0  0  0  0
    9.6995    4.2000    0.0000 C   0  0  0  0  0  0  0  0  0  0  0  0
   10.9119    4.9000    0.0000 N   0  0  0  0  0  0  0  0  0  0  0  0
   10.9119    6.3000    0.0000 C   0  0  0  0  0  0  0  0  0  0  0  0
    9.6995    7.0000    0.0000 N   0  0  0  0  0  0  0  0  0  0  0  0
    9.6995    2.8000    0.0000 N   0  0  0  0  0  0  0  0  0  0  0  0
   10.9119    2.1000    0.0000 C   0  0  0  0  0  0  0  0  0  0  0  0
   10.9119    0.7000    0.0000 C   0  0  0  0  0  0  0  0  0  0  0  0
   12.1244    0.0000    0.0000 C   0  0  0  0  0  0  0  0  0  0  0  0
   13.3368    0.7000    0.0000 C   0  0  0  0  0  0  0  0  0  0  0  0
   13.3368    2.1000    0.0000 C   0  0  0  0  0  0  0  0  0  0  0  0
   12.1244    2.8000    0.0000 C   0  0  0  0  0  0  0  0  0  0  0  0
    4.8497    7.0000    0.0000 O   0  0  0  0  0  0  0  0  0  0  0  0
    3.6373    6.3000    0.0000 C   0  0  0  0  0  0  0  0  0  0  0  0
    2.4249    7.0000    0.0000 C   0  0  0  0  0  0  0  0  0  0  0  0
    1.2124    6.3000    0.0000 O   0  0  0  0  0  0  0  0  0  0  0  0
    4.8497    4.2000    0.0000 O   0  0  0  0  0  0  0  0  0  0  0  0
    3.6373    4.9000    0.0000 C   0  0  0  0  0  0  0  0  0  0  0  0
    2.4249    4.2000    0.0000 C   0  0  0  0  0  0  0  0  0  0  0  0
    1.2124    4.9000    0.0000 O   0  0  0  0  0  0  0  0  0  0  0  0
   14.5492    2.8000    0.0000 C   0  0  0  0  0  0  0  0  0  0  0  0
   15.7602    3.5000    0.0000 C   0  0  0  0  0  0  0  0  0  0  0  0
    0.0000    7.0000    0.0000 C   0  0  0  0  0  0  0  0  0  0  0  0
    0.0000    4.2000    0.0000 C   0  0  0  0  0  0  0  0  0  0  0  0
  1  2  2  0  0  0  0
  2  3  1  0  0  0  0
  3  4  2  0  0  0  0
  4  5  1  0  0  0  0
  5  6  2  0  0  0  0
  6  1  1  0  0  0  0
  4  7  1  0  0  0  0
  7  8  2  0  0  0  0
  8  9  1  0  0  0  0
  9 10  2  0  0  0  0
 10  5  1  0  0  0  0
  7 11  1  0  0  0  0
 11 12  1  0  0  0  0
 12 13  2  0  0  0  0
 13 14  1  0  0  0  0
 14 15  2  0  0  0  0
 15 16  1  0  0  0  0
 16 17  2  0  0  0  0
 17 12  1  0  0  0  0
  1 18  1  0  0  0  0
 18 19  1  0  0  0  0
 19 20  1  0  0  0  0
 20 21  1  0  0  0  0
  2 22  1  0  0  0  0
 22 23  1  0  0  0  0
 23 24  1  0  0  0  0
 24 25  1  0  0  0  0
 16 26  1  0  0  0  0
 26 27  3  0  0  0  0
 21 28  1  0  0  0  0
 25 29  1  0  0  0  0
M  END
>  <Mol_ID> (490)
2907

>  <Formula> (490)
C22H23N3O4

>  <MolWeight> (490)
393.43572

>  <Cat> (490)
S7786

>  <Name> (490)
Erlotinib

>  <Synonyms> (490)
CP358774, NSC 718781

>  <Target> (490)
EGFR

>  <Form> (490)
Free Base

>  <CAS> (490)
183321-74-6

>  <URL> (490)
http://www.selleckchem.com/products/erlotinib.html

$$$$
CL-387785.cdx
csChFnd80/05071909292D

 24 26  0  0  0  0  0  0  0  0999 V2000
    6.0593    4.9000    0.0000 C   0  0  0  0  0  0  0  0  0  0  0  0
    9.6966    4.2000    0.0000 C   0  0  0  0  0  0  0  0  0  0  0  0
    9.6966    2.8000    0.0000 N   0  0  0  0  0  0  0  0  0  0  0  0
   10.9090    2.1000    0.0000 C   0  0  0  0  0  0  0  0  0  0  0  0
   10.9090    0.7000    0.0000 C   0  0  0  0  0  0  0  0  0  0  0  0
   12.1215    0.0000    0.0000 C   0  0  0  0  0  0  0  0  0  0  0  0
   13.3339    0.7000    0.0000 C   0  0  0  0  0  0  0  0  0  0  0  0
   13.3339    2.1000    0.0000 C   0  0  0  0  0  0  0  0  0  0  0  0
   12.1215    2.8000    0.0000 C   0  0  0  0  0  0  0  0  0  0  0  0
   14.5463    2.8000    0.0000 Br  0  0  0  0  0  0  0  0  0  0  0  0
    4.8469    4.2000    0.0000 N   0  0  0  0  0  0  0  0  0  0  0  0
    3.6344    4.9000    0.0000 C   0  0  0  0  0  0  0  0  0  0  0  0
    2.4220    4.2000    0.0000 C   0  0  0  0  0  0  0  0  0  0  0  0
    3.6344    6.3000    0.0000 O   0  0  0  0  0  0  0  0  0  0  0  0
    1.2110    3.5000    0.0000 C   0  0  0  0  0  0  0  0  0  0  0  0
    0.0000    2.8000    0.0000 C   0  0  0  0  0  0  0  0  0  0  0  0
    7.2717    4.2000    0.0000 C   0  0  0  0  0  0  0  0  0  0  0  0
    8.4842    4.9000    0.0000 C   0  0  0  0  0  0  0  0  0  0  0  0
    8.4842    6.3000    0.0000 C   0  0  0  0  0  0  0  0  0  0  0  0
    7.2717    7.0000    0.0000 C   0  0  0  0  0  0  0  0  0  0  0  0
    6.0593    6.3000    0.0000 C   0  0  0  0  0  0  0  0  0  0  0  0
   10.9090    4.9000    0.0000 N   0  0  0  0  0  0  0  0  0  0  0  0
   10.9090    6.3000    0.0000 C   0  0  0  0  0  0  0  0  0  0  0  0
    9.6966    7.0000    0.0000 N   0  0  0  0  0  0  0  0  0  0  0  0
  2  3  1  0  0  0  0
  3  4  1  0  0  0  0
  4  5  2  0  0  0  0
  5  6  1  0  0  0  0
  6  7  2  0  0  0  0
  7  8  1  0  0  0  0
  8  9  2  0  0  0  0
  9  4  1  0  0  0  0
  8 10  1  0  0  0  0
  1 11  1  0  0  0  0
 11 12  1  0  0  0  0
 12 13  1  0  0  0  0
 12 14  2  0  0  0  0
 13 15  3  0  0  0  0
 15 16  1  0  0  0  0
  1 17  2  0  0  0  0
 17 18  1  0  0  0  0
 18 19  1  0  0  0  0
 19 20  1  0  0  0  0
 20 21  2  0  0  0  0
 21  1  1  0  0  0  0
 18  2  2  0  0  0  0
  2 22  1  0  0  0  0
 22 23  2  0  0  0  0
 23 24  1  0  0  0  0
 24 19  2  0  0  0  0
M  END
>  <Mol_ID> (491)
2909

>  <Formula> (491)
C18H13BrN4O

>  <MolWeight> (491)
381.22602

>  <Cat> (491)
S7557

>  <Name> (491)
CL-387785 (EKI-785)

>  <Synonyms> (491)
N/A

>  <Target> (491)
EGFR

>  <Form> (491)
Free Base

>  <CAS> (491)
194423-06-8

>  <URL> (491)
http://www.selleckchem.com/products/cl-387785-eki-785.html

$$$$
PD-0332991 hydrochloride.cdx
csChFnd80/05071909292D

 34 37  0  0  0  0  0  0  0  0999 V2000
    4.9938    3.3292    0.0000 N   0  0  0  0  0  0  0  0  0  0  0  0
    4.9938    2.5042    0.0000 C   0  0  0  0  0  0  0  0  0  0  0  0
    5.7084    2.0917    0.0000 N   0  0  0  0  0  0  0  0  0  0  0  0
    6.4228    2.5042    0.0000 C   0  0  0  0  0  0  0  0  0  0  0  0
    6.4228    3.3292    0.0000 C   0  0  0  0  0  0  0  0  0  0  0  0
    5.7084    3.7417    0.0000 C   0  0  0  0  0  0  0  0  0  0  0  0
    7.1373    2.0917    0.0000 N   0  0  0  0  0  0  0  0  0  0  0  0
    7.8518    2.5042    0.0000 C   0  0  0  0  0  0  0  0  0  0  0  0
    7.8518    3.3292    0.0000 C   0  0  0  0  0  0  0  0  0  0  0  0
    7.1373    3.7417    0.0000 C   0  0  0  0  0  0  0  0  0  0  0  0
    7.1373    4.5638    0.0000 C   0  0  0  0  0  0  0  0  0  0  0  0
    8.5637    3.7403    0.0000 C   0  0  0  0  0  0  0  0  0  0  0  0
    9.2757    3.3292    0.0000 C   0  0  0  0  0  0  0  0  0  0  0  0
    8.5637    4.5624    0.0000 O   0  0  0  0  0  0  0  0  0  0  0  0
    8.5637    2.0931    0.0000 O   0  0  0  0  0  0  0  0  0  0  0  0
    7.1373    1.2696    0.0000 C   0  0  0  0  0  0  0  0  0  0  0  0
    6.4698    0.7846    0.0000 C   0  0  0  0  0  0  0  0  0  0  0  0
    6.7248    0.0000    0.0000 C   0  0  0  0  0  0  0  0  0  0  0  0
    7.5498    0.0000    0.0000 C   0  0  0  0  0  0  0  0  0  0  0  0
    7.8047    0.7846    0.0000 C   0  0  0  0  0  0  0  0  0  0  0  0
    4.2819    2.0931    0.0000 N   0  0  0  0  0  0  0  0  0  0  0  0
    3.5699    2.5042    0.0000 C   0  0  0  0  0  0  0  0  0  0  0  0
    3.5699    3.3292    0.0000 N   0  0  0  0  0  0  0  0  0  0  0  0
    2.8554    3.7417    0.0000 C   0  0  0  0  0  0  0  0  0  0  0  0
    2.1409    3.3292    0.0000 C   0  0  0  0  0  0  0  0  0  0  0  0
    2.1409    2.5042    0.0000 C   0  0  0  0  0  0  0  0  0  0  0  0
    2.8554    2.0917    0.0000 C   0  0  0  0  0  0  0  0  0  0  0  0
    1.4290    3.7403    0.0000 N   0  0  0  0  0  0  0  0  0  0  0  0
    1.4290    4.5653    0.0000 C   0  0  0  0  0  0  0  0  0  0  0  0
    0.7145    4.9778    0.0000 C   0  0  0  0  0  0  0  0  0  0  0  0
    0.0000    4.5653    0.0000 N   0  0  0  0  0  0  0  0  0  0  0  0
    0.0000    3.7403    0.0000 C   0  0  0  0  0  0  0  0  0  0  0  0
    0.7145    3.3278    0.0000 C   0  0  0  0  0  0  0  0  0  0  0  0
    1.7033    0.2612    0.0000 Cl  0  0  0  0  0  0  0  0  0  0  0  0
  1  2  2  0  0  0  0
  2  3  1  0  0  0  0
  3  4  2  0  0  0  0
  4  5  1  0  0  0  0
  5  6  2  0  0  0  0
  6  1  1  0  0  0  0
  4  7  1  0  0  0  0
  7  8  1  0  0  0  0
  8  9  1  0  0  0  0
  9 10  2  0  0  0  0
 10  5  1  0  0  0  0
 10 11  1  0  0  0  0
  9 12  1  0  0  0  0
 12 13  1  0  0  0  0
 12 14  2  0  0  0  0
  8 15  2  0  0  0  0
  7 16  1  0  0  0  0
 16 17  1  0  0  0  0
 17 18  1  0  0  0  0
 18 19  1  0  0  0  0
 19 20  1  0  0  0  0
 20 16  1  0  0  0  0
  2 21  1  0  0  0  0
 21 22  1  0  0  0  0
 22 23  2  0  0  0  0
 23 24  1  0  0  0  0
 24 25  2  0  0  0  0
 25 26  1  0  0  0  0
 26 27  2  0  0  0  0
 27 22  1  0  0  0  0
 25 28  1  0  0  0  0
 28 29  1  0  0  0  0
 29 30  1  0  0  0  0
 30 31  1  0  0  0  0
 31 32  1  0  0  0  0
 32 33  1  0  0  0  0
 33 28  1  0  0  0  0
M  END
>  <Mol_ID> (492)
2910

>  <Formula> (492)
C24H30ClN7O2

>  <MolWeight> (492)
483.9937

>  <Cat> (492)
S1116

>  <Name> (492)
PD 0332991 (Palbociclib) HCl

>  <Synonyms> (492)
N/A

>  <Target> (492)
CDK

>  <Form> (492)
Hydrochloride

>  <CAS> (492)
827022-32-2, 571190-30-2 (free base)

>  <URL> (492)
http://www.selleckchem.com/products/PD-0332991.html

$$$$
PF-00080665.cdx
csChFnd80/05071909292D

 40 43  0  0  0  0  0  0  0  0999 V2000
    3.5465    4.9536    0.0000 N   0  0  0  0  0  0  0  0  0  0  0  0
    2.8390    5.3765    0.0000 C   0  0  0  0  0  0  0  0  0  0  0  0
    3.5465    4.1315    0.0000 C   0  0  0  0  0  0  0  0  0  0  0  0
    4.2529    5.3785    0.0000 C   0  0  0  0  0  0  0  0  0  0  0  0
    2.8390    6.2125    0.0000 C   0  0  0  0  0  0  0  0  0  0  0  0
    2.1327    4.9536    0.0000 N   0  0  0  0  0  0  0  0  0  0  0  0
    2.8862    3.6429    0.0000 C   0  0  0  0  0  0  0  0  0  0  0  0
    4.2133    3.6421    0.0000 C   0  0  0  0  0  0  0  0  0  0  0  0
    4.2581    6.2085    0.0000 C   0  0  0  0  0  0  0  0  0  0  0  0
    4.9650    4.9675    0.0000 O   0  0  0  0  0  0  0  0  0  0  0  0
    3.5449    6.6396    0.0000 C   0  0  0  0  0  0  0  0  0  0  0  0
    2.1335    6.6315    0.0000 C   0  0  0  0  0  0  0  0  0  0  0  0
    1.4247    5.3793    0.0000 C   0  0  0  0  0  0  0  0  0  0  0  0
    3.1377    2.8530    0.0000 C   0  0  0  0  0  0  0  0  0  0  0  0
    3.9549    2.8489    0.0000 C   0  0  0  0  0  0  0  0  0  0  0  0
    4.9700    6.6196    0.0000 C   0  0  0  0  0  0  0  0  0  0  0  0
    3.5449    7.4618    0.0000 C   0  0  0  0  0  0  0  0  0  0  0  0
    1.4263    6.2135    0.0000 N   0  0  0  0  0  0  0  0  0  0  0  0
    0.7127    4.9682    0.0000 N   0  0  0  0  0  0  0  0  0  0  0  0
    5.6855    6.2065    0.0000 C   0  0  0  0  0  0  0  0  0  0  0  0
    4.9700    7.4377    0.0000 O   0  0  0  0  0  0  0  0  0  0  0  0
    0.7127    4.1489    0.0000 C   0  0  0  0  0  0  0  0  0  0  0  0
    1.4131    3.7413    0.0000 C   0  0  0  0  0  0  0  0  0  0  0  0
    0.0005    3.7364    0.0000 N   0  0  0  0  0  0  0  0  0  0  0  0
    1.4127    2.9084    0.0000 C   0  0  0  0  0  0  0  0  0  0  0  0
    0.0000    2.9076    0.0000 C   0  0  0  0  0  0  0  0  0  0  0  0
    0.7114    2.4880    0.0000 C   0  0  0  0  0  0  0  0  0  0  0  0
    0.7114    1.6659    0.0000 N   0  0  0  0  0  0  0  0  0  0  0  0
    0.0109    1.2509    0.0000 C   0  0  0  0  0  0  0  0  0  0  0  0
    1.4230    1.2511    0.0000 C   0  0  0  0  0  0  0  0  0  0  0  0
    0.0044    0.4179    0.0000 C   0  0  0  0  0  0  0  0  0  0  0  0
    1.4252    0.4190    0.0000 C   0  0  0  0  0  0  0  0  0  0  0  0
    0.7157    0.0000    0.0000 N   0  0  0  0  0  0  0  0  0  0  0  0
    3.7425    0.4593    0.0000 O   0  0  0  0  0  0  0  0  0  0  0  0
    4.4545    0.8704    0.0000 C   0  0  0  0  0  0  0  0  0  0  0  0
    5.1665    0.4593    0.0000 C   0  0  0  0  0  0  0  0  0  0  0  0
    5.8784    0.8704    0.0000 S   0  0  0  0  0  0  0  0  0  0  0  0
    6.5904    1.2815    0.0000 O   0  0  0  0  0  0  0  0  0  0  0  0
    5.4674    1.5824    0.0000 O   0  0  0  0  0  0  0  0  0  0  0  0
    6.2895    0.1584    0.0000 O   0  0  0  0  0  0  0  0  0  0  0  0
  1  2  1  0  0  0  0
  1  3  1  0  0  0  0
  1  4  1  0  0  0  0
  2  5  1  0  0  0  0
  2  6  2  0  0  0  0
  3  7  1  0  0  0  0
  3  8  1  0  0  0  0
  4  9  1  0  0  0  0
  4 10  2  0  0  0  0
  5 11  1  0  0  0  0
  5 12  2  0  0  0  0
  6 13  1  0  0  0  0
  7 14  1  0  0  0  0
  8 15  1  0  0  0  0
  9 16  1  0  0  0  0
 11 17  1  0  0  0  0
 12 18  1  0  0  0  0
 13 19  1  0  0  0  0
 16 20  1  0  0  0  0
 16 21  2  0  0  0  0
 19 22  1  0  0  0  0
 22 23  1  0  0  0  0
 22 24  2  0  0  0  0
 23 25  2  0  0  0  0
 24 26  1  0  0  0  0
 25 27  1  0  0  0  0
 27 28  1  0  0  0  0
 28 29  1  0  0  0  0
 28 30  1  0  0  0  0
 29 31  1  0  0  0  0
 30 32  1  0  0  0  0
 31 33  1  0  0  0  0
  9 11  2  0  0  0  0
 13 18  2  0  0  0  0
 14 15  1  0  0  0  0
 26 27  2  0  0  0  0
 32 33  1  0  0  0  0
 34 35  1  0  0  0  0
 35 36  1  0  0  0  0
 36 37  1  0  0  0  0
 37 38  1  0  0  0  0
 37 39  2  0  0  0  0
 37 40  2  0  0  0  0
M  END
>  <Mol_ID> (493)
2911

>  <Formula> (493)
C26H35N7O6S

>  <MolWeight> (493)
573.6644

>  <Cat> (493)
S1579

>  <Name> (493)
PD 0332991 (Palbociclib) Isethionate

>  <Synonyms> (493)
N/A

>  <Target> (493)
CDK

>  <Form> (493)
Isethionate

>  <CAS> (493)
827022-33-3, 571190-30-2(free base)

>  <URL> (493)
http://www.selleckchem.com/products/pd-0332991-palbociclib-isethionate.html

$$$$
FRAX597.cdx
csChFnd80/05071909292D

 39 44  0  0  0  0  0  0  0  0999 V2000
    9.6995    4.2000    0.0000 N   0  0  0  0  0  0  0  0  0  0  0  0
    9.6995    2.8000    0.0000 C   0  0  0  0  0  0  0  0  0  0  0  0
   10.9119    2.1000    0.0000 N   0  0  0  0  0  0  0  0  0  0  0  0
   12.1244    2.8000    0.0000 C   0  0  0  0  0  0  0  0  0  0  0  0
   12.1244    4.2000    0.0000 C   0  0  0  0  0  0  0  0  0  0  0  0
   10.9119    4.9000    0.0000 C   0  0  0  0  0  0  0  0  0  0  0  0
   13.3368    2.1000    0.0000 N   0  0  0  0  0  0  0  0  0  0  0  0
   14.5492    2.8000    0.0000 C   0  0  0  0  0  0  0  0  0  0  0  0
   14.5492    4.2000    0.0000 C   0  0  0  0  0  0  0  0  0  0  0  0
   13.3368    4.9000    0.0000 C   0  0  0  0  0  0  0  0  0  0  0  0
   13.3368    0.7000    0.0000 C   0  0  0  0  0  0  0  0  0  0  0  0
   14.5492    0.0000    0.0000 C   0  0  0  0  0  0  0  0  0  0  0  0
   15.7617    2.1000    0.0000 O   0  0  0  0  0  0  0  0  0  0  0  0
    8.4870    2.1000    0.0000 N   0  0  0  0  0  0  0  0  0  0  0  0
    7.2746    2.8000    0.0000 C   0  0  0  0  0  0  0  0  0  0  0  0
    7.2746    4.2000    0.0000 C   0  0  0  0  0  0  0  0  0  0  0  0
    6.0622    4.9000    0.0000 C   0  0  0  0  0  0  0  0  0  0  0  0
    4.8497    4.2000    0.0000 C   0  0  0  0  0  0  0  0  0  0  0  0
    4.8497    2.8000    0.0000 C   0  0  0  0  0  0  0  0  0  0  0  0
    6.0622    2.1000    0.0000 C   0  0  0  0  0  0  0  0  0  0  0  0
    3.6373    4.9000    0.0000 N   0  0  0  0  0  0  0  0  0  0  0  0
    3.6373    6.3000    0.0000 C   0  0  0  0  0  0  0  0  0  0  0  0
    2.4249    7.0000    0.0000 C   0  0  0  0  0  0  0  0  0  0  0  0
    1.2124    6.3000    0.0000 N   0  0  0  0  0  0  0  0  0  0  0  0
    1.2124    4.9000    0.0000 C   0  0  0  0  0  0  0  0  0  0  0  0
    2.4249    4.2000    0.0000 C   0  0  0  0  0  0  0  0  0  0  0  0
    0.0000    7.0000    0.0000 C   0  0  0  0  0  0  0  0  0  0  0  0
   15.7617    4.9000    0.0000 C   0  0  0  0  0  0  0  0  0  0  0  0
   16.9741    4.2000    0.0000 C   0  0  0  0  0  0  0  0  0  0  0  0
   18.1865    4.9000    0.0000 C   0  0  0  0  0  0  0  0  0  0  0  0
   18.1865    6.3000    0.0000 C   0  0  0  0  0  0  0  0  0  0  0  0
   16.9741    7.0000    0.0000 C   0  0  0  0  0  0  0  0  0  0  0  0
   15.7617    6.3000    0.0000 C   0  0  0  0  0  0  0  0  0  0  0  0
   14.5492    7.0000    0.0000 Cl  0  0  0  0  0  0  0  0  0  0  0  0
   19.3990    7.0000    0.0000 C   0  0  0  0  0  0  0  0  0  0  0  0
   20.6779    6.4306    0.0000 S   0  0  0  0  0  0  0  0  0  0  0  0
   21.6147    7.4710    0.0000 C   0  0  0  0  0  0  0  0  0  0  0  0
   20.9147    8.6834    0.0000 N   0  0  0  0  0  0  0  0  0  0  0  0
   19.5453    8.3923    0.0000 C   0  0  0  0  0  0  0  0  0  0  0  0
  1  2  2  0  0  0  0
  2  3  1  0  0  0  0
  3  4  2  0  0  0  0
  4  5  1  0  0  0  0
  5  6  2  0  0  0  0
  6  1  1  0  0  0  0
  4  7  1  0  0  0  0
  7  8  1  0  0  0  0
  8  9  1  0  0  0  0
  9 10  2  0  0  0  0
 10  5  1  0  0  0  0
  7 11  1  0  0  0  0
 11 12  1  0  0  0  0
  8 13  2  0  0  0  0
  2 14  1  0  0  0  0
 14 15  1  0  0  0  0
 15 16  2  0  0  0  0
 16 17  1  0  0  0  0
 17 18  2  0  0  0  0
 18 19  1  0  0  0  0
 19 20  2  0  0  0  0
 20 15  1  0  0  0  0
 18 21  1  0  0  0  0
 21 22  1  0  0  0  0
 22 23  1  0  0  0  0
 23 24  1  0  0  0  0
 24 25  1  0  0  0  0
 25 26  1  0  0  0  0
 26 21  1  0  0  0  0
 24 27  1  0  0  0  0
  9 28  1  0  0  0  0
 28 29  2  0  0  0  0
 29 30  1  0  0  0  0
 30 31  2  0  0  0  0
 31 32  1  0  0  0  0
 32 33  2  0  0  0  0
 33 28  1  0  0  0  0
 33 34  1  0  0  0  0
 31 35  1  0  0  0  0
 35 36  1  0  0  0  0
 36 37  1  0  0  0  0
 37 38  2  0  0  0  0
 38 39  1  0  0  0  0
 39 35  2  0  0  0  0
M  END
>  <Mol_ID> (494)
2916

>  <Formula> (494)
C29H28ClN7OS

>  <MolWeight> (494)
558.09692

>  <Cat> (494)
S7271

>  <Name> (494)
FRAX597

>  <Synonyms> (494)
N/A

>  <Target> (494)
PAK

>  <Form> (494)
Free Base

>  <CAS> (494)
1286739-19-2

>  <URL> (494)
http://www.selleckchem.com/products/frax597.html

$$$$
Ro-3306.cdx
csChFnd80/05071909292D

 24 27  0  0  0  0  0  0  0  0999 V2000
    1.2124    2.1000    0.0000 C   0  0  0  0  0  0  0  0  0  0  0  0
    1.2124    0.7000    0.0000 N   0  0  0  0  0  0  0  0  0  0  0  0
    2.4249    0.0000    0.0000 C   0  0  0  0  0  0  0  0  0  0  0  0
    3.6373    0.7000    0.0000 C   0  0  0  0  0  0  0  0  0  0  0  0
    3.6373    2.1000    0.0000 C   0  0  0  0  0  0  0  0  0  0  0  0
    2.4249    2.8000    0.0000 C   0  0  0  0  0  0  0  0  0  0  0  0
    2.4249    4.2000    0.0000 C   0  0  0  0  0  0  0  0  0  0  0  0
    1.2124    4.9000    0.0000 C   0  0  0  0  0  0  0  0  0  0  0  0
    0.0000    4.2000    0.0000 C   0  0  0  0  0  0  0  0  0  0  0  0
    0.0000    2.8000    0.0000 C   0  0  0  0  0  0  0  0  0  0  0  0
    1.2124    6.3000    0.0000 C   0  0  0  0  0  0  0  0  0  0  0  0
    2.4249    7.0000    0.0000 C   0  0  0  0  0  0  0  0  0  0  0  0
    3.7038    6.4306    0.0000 S   0  0  0  0  0  0  0  0  0  0  0  0
    4.6406    7.4710    0.0000 C   0  0  0  0  0  0  0  0  0  0  0  0
    3.9406    8.6834    0.0000 N   0  0  0  0  0  0  0  0  0  0  0  0
    2.5712    8.3923    0.0000 C   0  0  0  0  0  0  0  0  0  0  0  0
    1.5308    9.3291    0.0000 O   0  0  0  0  0  0  0  0  0  0  0  0
    6.0329    7.3246    0.0000 N   0  0  0  0  0  0  0  0  0  0  0  0
    6.8558    8.4573    0.0000 C   0  0  0  0  0  0  0  0  0  0  0  0
    8.2482    8.3109    0.0000 C   0  0  0  0  0  0  0  0  0  0  0  0
    8.9482    7.0985    0.0000 C   0  0  0  0  0  0  0  0  0  0  0  0
   10.3176    7.3896    0.0000 C   0  0  0  0  0  0  0  0  0  0  0  0
   10.4639    8.7819    0.0000 C   0  0  0  0  0  0  0  0  0  0  0  0
    9.1850    9.3513    0.0000 S   0  0  0  0  0  0  0  0  0  0  0  0
  1  2  1  0  0  0  0
  2  3  2  0  0  0  0
  3  4  1  0  0  0  0
  4  5  2  0  0  0  0
  5  6  1  0  0  0  0
  6  1  1  0  0  0  0
  6  7  2  0  0  0  0
  7  8  1  0  0  0  0
  8  9  2  0  0  0  0
  9 10  1  0  0  0  0
 10  1  2  0  0  0  0
  8 11  1  0  0  0  0
 11 12  2  0  0  0  0
 12 13  1  0  0  0  0
 13 14  1  0  0  0  0
 14 15  2  0  0  0  0
 15 16  1  0  0  0  0
 16 12  1  0  0  0  0
 16 17  2  0  0  0  0
 14 18  1  0  0  0  0
 18 19  1  0  0  0  0
 19 20  1  0  0  0  0
 20 21  2  0  0  0  0
 21 22  1  0  0  0  0
 22 23  2  0  0  0  0
 23 24  1  0  0  0  0
 24 20  1  0  0  0  0
M  END
>  <Mol_ID> (495)
2919

>  <Formula> (495)
C18H13N3OS2

>  <MolWeight> (495)
351.44532

>  <Cat> (495)
S7747

>  <Name> (495)
Ro-3306

>  <Synonyms> (495)
N/A

>  <Target> (495)
CDK

>  <Form> (495)
Free Base

>  <CAS> (495)
872573-93-8

>  <URL> (495)
http://www.selleckchem.com/products/ro-3306.html

$$$$
Afatinib dimaleate.cdx
csChFnd80/05071909292D

 50 51  0  0  0  0  0  0  0  0999 V2000
    8.4828    9.4468    0.0000 C   0  0  0  0  0  0  0  0  0  0  0  0
    8.4828    8.0468    0.0000 C   0  0  0  0  0  0  0  0  0  0  0  0
    9.6953    7.3468    0.0000 C   0  0  0  0  0  0  0  0  0  0  0  0
   10.9077    8.0468    0.0000 C   0  0  0  0  0  0  0  0  0  0  0  0
   10.9077    9.4468    0.0000 C   0  0  0  0  0  0  0  0  0  0  0  0
    9.6953   10.1468    0.0000 C   0  0  0  0  0  0  0  0  0  0  0  0
   12.1201    7.3468    0.0000 C   0  0  0  0  0  0  0  0  0  0  0  0
   13.3326    8.0468    0.0000 N   0  0  0  0  0  0  0  0  0  0  0  0
   13.3326    9.4468    0.0000 C   0  0  0  0  0  0  0  0  0  0  0  0
   12.1201   10.1468    0.0000 N   0  0  0  0  0  0  0  0  0  0  0  0
   12.1201    5.9468    0.0000 N   0  0  0  0  0  0  0  0  0  0  0  0
   13.3326    5.2468    0.0000 C   0  0  0  0  0  0  0  0  0  0  0  0
   13.3326    3.8468    0.0000 C   0  0  0  0  0  0  0  0  0  0  0  0
   14.5450    3.1468    0.0000 C   0  0  0  0  0  0  0  0  0  0  0  0
   15.7575    3.8468    0.0000 C   0  0  0  0  0  0  0  0  0  0  0  0
   15.7575    5.2468    0.0000 C   0  0  0  0  0  0  0  0  0  0  0  0
   14.5450    5.9468    0.0000 C   0  0  0  0  0  0  0  0  0  0  0  0
    7.2704   10.1468    0.0000 O   0  0  0  0  0  0  0  0  0  0  0  0
    7.2704    7.3468    0.0000 N   0  0  0  0  0  0  0  0  0  0  0  0
    6.0580    8.0468    0.0000 C   0  0  0  0  0  0  0  0  0  0  0  0
    4.8455    7.3468    0.0000 C   0  0  0  0  0  0  0  0  0  0  0  0
    3.6331    8.0468    0.0000 C   0  0  0  0  0  0  0  0  0  0  0  0
    2.4207    7.3468    0.0000 C   0  0  0  0  0  0  0  0  0  0  0  0
    6.0580    9.4468    0.0000 O   0  0  0  0  0  0  0  0  0  0  0  0
    1.2082    8.0468    0.0000 N   0  0  0  0  0  0  0  0  0  0  0  0
    7.2704   11.5419    0.0000 C   0  0  1  0  0  0  0  0  0  0  0  0
    8.4030   12.3648    0.0000 C   0  0  0  0  0  0  0  0  0  0  0  0
    7.9704   13.6963    0.0000 C   0  0  0  0  0  0  0  0  0  0  0  0
    6.5704   13.6963    0.0000 O   0  0  0  0  0  0  0  0  0  0  0  0
    6.1378   12.3648    0.0000 C   0  0  0  0  0  0  0  0  0  0  0  0
    0.0000    7.3492    0.0000 C   0  0  0  0  0  0  0  0  0  0  0  0
    1.2082    9.4419    0.0000 C   0  0  0  0  0  0  0  0  0  0  0  0
   16.9657    5.9444    0.0000 Cl  0  0  0  0  0  0  0  0  0  0  0  0
   16.9657    3.1492    0.0000 F   0  0  0  0  0  0  0  0  0  0  0  0
    1.4768    2.3273    0.0000 C   0  0  0  0  0  0  0  0  0  0  0  0
    2.6893    3.0273    0.0000 O   0  0  0  0  0  0  0  0  0  0  0  0
    0.2686    3.0248    0.0000 O   0  0  0  0  0  0  0  0  0  0  0  0
    1.4768    0.9321    0.0000 C   0  0  0  0  0  0  0  0  0  0  0  0
    2.6851    0.2345    0.0000 C   0  0  0  0  0  0  0  0  0  0  0  0
    3.8933    0.9321    0.0000 C   0  0  0  0  0  0  0  0  0  0  0  0
    5.1015    0.2345    0.0000 O   0  0  0  0  0  0  0  0  0  0  0  0
    3.8933    2.3273    0.0000 O   0  0  0  0  0  0  0  0  0  0  0  0
   10.0394    2.0927    0.0000 C   0  0  0  0  0  0  0  0  0  0  0  0
   11.2519    2.7927    0.0000 O   0  0  0  0  0  0  0  0  0  0  0  0
    8.8312    2.7903    0.0000 O   0  0  0  0  0  0  0  0  0  0  0  0
   10.0394    0.6976    0.0000 C   0  0  0  0  0  0  0  0  0  0  0  0
   11.2477    0.0000    0.0000 C   0  0  0  0  0  0  0  0  0  0  0  0
   12.4559    0.6976    0.0000 C   0  0  0  0  0  0  0  0  0  0  0  0
   13.6641    0.0000    0.0000 O   0  0  0  0  0  0  0  0  0  0  0  0
   12.4559    2.0927    0.0000 O   0  0  0  0  0  0  0  0  0  0  0  0
  1  2  2  0  0  0  0
  2  3  1  0  0  0  0
  3  4  2  0  0  0  0
  4  5  1  0  0  0  0
  5  6  2  0  0  0  0
  6  1  1  0  0  0  0
  4  7  1  0  0  0  0
  7  8  2  0  0  0  0
  8  9  1  0  0  0  0
  9 10  2  0  0  0  0
 10  5  1  0  0  0  0
  7 11  1  0  0  0  0
 11 12  1  0  0  0  0
 12 13  2  0  0  0  0
 13 14  1  0  0  0  0
 14 15  2  0  0  0  0
 15 16  1  0  0  0  0
 16 17  2  0  0  0  0
 17 12  1  0  0  0  0
  1 18  1  0  0  0  0
  2 19  1  0  0  0  0
 19 20  1  0  0  0  0
 20 21  1  0  0  0  0
 21 22  2  0  0  0  0
 22 23  1  0  0  0  0
 20 24  2  0  0  0  0
 23 25  1  0  0  0  0
 26 18  1  6  0  0  0
 26 27  1  0  0  0  0
 27 28  1  0  0  0  0
 28 29  1  0  0  0  0
 29 30  1  0  0  0  0
 30 26  1  0  0  0  0
 25 31  1  0  0  0  0
 25 32  1  0  0  0  0
 16 33  1  0  0  0  0
 15 34  1  0  0  0  0
 35 36  2  0  0  0  0
 35 37  1  0  0  0  0
 35 38  1  0  0  0  0
 38 39  2  0  0  0  0
 39 40  1  0  0  0  0
 40 41  1  0  0  0  0
 40 42  2  0  0  0  0
 43 44  2  0  0  0  0
 43 45  1  0  0  0  0
 43 46  1  0  0  0  0
 46 47  2  0  0  0  0
 47 48  1  0  0  0  0
 48 49  1  0  0  0  0
 48 50  2  0  0  0  0
M  END
>  <Mol_ID> (496)
2922

>  <Formula> (496)
C32H33ClFN5O11

>  <MolWeight> (496)
718.0827232

>  <Cat> (496)
S7810

>  <Name> (496)
Afatinib (BIBW2992) Dimaleate

>  <Synonyms> (496)
N/A

>  <Target> (496)
EGFR

>  <Form> (496)
Dimaleate

>  <CAS> (496)
850140-73-7

>  <URL> (496)
http://www.selleckchem.com/products/afatinib-bibw2992-dimaleate.html

$$$$
LY2409881.cdx
csChFnd80/05071909292D

 36 37  0  0  0  0  0  0  0  0999 V2000
   11.7688    3.6331    0.0000 N   0  0  0  0  0  0  0  0  0  0  0  0
   11.0688    2.4207    0.0000 C   0  0  0  0  0  0  0  0  0  0  0  0
   11.7688    1.2082    0.0000 C   0  0  0  0  0  0  0  0  0  0  0  0
   13.1688    1.2082    0.0000 C   0  0  0  0  0  0  0  0  0  0  0  0
   13.8688    2.4207    0.0000 N   0  0  0  0  0  0  0  0  0  0  0  0
   13.1688    3.6331    0.0000 C   0  0  0  0  0  0  0  0  0  0  0  0
    9.6688    2.4207    0.0000 C   0  0  0  0  0  0  0  0  0  0  0  0
    8.8459    3.5533    0.0000 C   0  0  0  0  0  0  0  0  0  0  0  0
    7.5144    3.1207    0.0000 C   0  0  0  0  0  0  0  0  0  0  0  0
    7.5144    1.7207    0.0000 C   0  0  0  0  0  0  0  0  0  0  0  0
    8.8459    1.2880    0.0000 S   0  0  0  0  0  0  0  0  0  0  0  0
    6.3020    3.8207    0.0000 C   0  0  0  0  0  0  0  0  0  0  0  0
    5.0895    3.1207    0.0000 C   0  0  0  0  0  0  0  0  0  0  0  0
    5.0895    1.7207    0.0000 C   0  0  0  0  0  0  0  0  0  0  0  0
    6.3020    1.0207    0.0000 C   0  0  0  0  0  0  0  0  0  0  0  0
    6.3020    5.2158    0.0000 C   0  0  0  0  0  0  0  0  0  0  0  0
    5.0937    5.9134    0.0000 N   0  0  0  0  0  0  0  0  0  0  0  0
    7.5102    5.9134    0.0000 O   0  0  0  0  0  0  0  0  0  0  0  0
    5.0937    7.3085    0.0000 C   0  0  0  0  0  0  0  0  0  0  0  0
    5.7937    8.5209    0.0000 C   0  0  0  0  0  0  0  0  0  0  0  0
    4.3937    8.5209    0.0000 C   0  0  0  0  0  0  0  0  0  0  0  0
   11.0712    0.0000    0.0000 Cl  0  0  0  0  0  0  0  0  0  0  0  0
   13.8664    4.8413    0.0000 N   0  0  0  0  0  0  0  0  0  0  0  0
   15.2615    4.8413    0.0000 C   0  0  0  0  0  0  0  0  0  0  0  0
   15.9591    6.0496    0.0000 C   0  0  0  0  0  0  0  0  0  0  0  0
   17.3542    6.0496    0.0000 C   0  0  0  0  0  0  0  0  0  0  0  0
   18.0518    7.2578    0.0000 N   0  0  0  0  0  0  0  0  0  0  0  0
   19.4518    7.2578    0.0000 C   0  0  0  0  0  0  0  0  0  0  0  0
   20.1518    8.4702    0.0000 C   0  0  0  0  0  0  0  0  0  0  0  0
   19.4518    9.6826    0.0000 N   0  0  0  0  0  0  0  0  0  0  0  0
   18.0518    9.6826    0.0000 C   0  0  0  0  0  0  0  0  0  0  0  0
   17.3518    8.4702    0.0000 C   0  0  0  0  0  0  0  0  0  0  0  0
   20.1494   10.8909    0.0000 C   0  0  0  0  0  0  0  0  0  0  0  0
    9.7222   20.5454    0.0000 Cl  0  0  0  0  0  0  0  0  0  0  0  0
    0.0000   20.5454    0.0000 Cl  0  0  0  0  0  0  0  0  0  0  0  0
    4.8611   10.8232    0.0000 Cl  0  0  0  0  0  0  0  0  0  0  0  0
  1  2  2  0  0  0  0
  2  3  1  0  0  0  0
  3  4  2  0  0  0  0
  4  5  1  0  0  0  0
  5  6  2  0  0  0  0
  6  1  1  0  0  0  0
  2  7  1  0  0  0  0
  7  8  2  0  0  0  0
  8  9  1  0  0  0  0
  9 10  2  0  0  0  0
 10 11  1  0  0  0  0
 11  7  1  0  0  0  0
  9 12  1  0  0  0  0
 12 13  2  0  0  0  0
 13 14  1  0  0  0  0
 14 15  2  0  0  0  0
 15 10  1  0  0  0  0
 12 16  1  0  0  0  0
 16 17  1  0  0  0  0
 16 18  2  0  0  0  0
 17 19  1  0  0  0  0
 19 20  1  0  0  0  0
 20 21  1  0  0  0  0
 21 19  1  0  0  0  0
  3 22  1  0  0  0  0
  6 23  1  0  0  0  0
 23 24  1  0  0  0  0
 24 25  1  0  0  0  0
 25 26  1  0  0  0  0
 26 27  1  0  0  0  0
 27 28  1  0  0  0  0
 28 29  1  0  0  0  0
 29 30  1  0  0  0  0
 30 31  1  0  0  0  0
 31 32  1  0  0  0  0
 32 27  1  0  0  0  0
 30 33  1  0  0  0  0
M  END
>  <Mol_ID> (497)
2923

>  <Formula> (497)
C24H32Cl4N6OS

>  <MolWeight> (497)
594.42748

>  <Cat> (497)
S7697

>  <Name> (497)
LY2409881

>  <Synonyms> (497)
N/A

>  <Target> (497)
IB/IKK

>  <Form> (497)
Trihydrochloride

>  <CAS> (497)
946518-60-1

>  <URL> (497)
http://www.selleckchem.com/products/ly2409881.html

$$$$
Afuresertib GSK2110183).cdx
csChFnd80/05071909292D

 27 29  0  0  0  0  0  0  0  0999 V2000
   10.9786    2.1000    0.0000 C   0  0  0  0  0  0  0  0  0  0  0  0
   10.9786    0.7000    0.0000 C   0  0  0  0  0  0  0  0  0  0  0  0
   12.1910    0.0000    0.0000 C   0  0  0  0  0  0  0  0  0  0  0  0
   13.4035    0.7000    0.0000 C   0  0  0  0  0  0  0  0  0  0  0  0
   13.4035    2.1000    0.0000 C   0  0  0  0  0  0  0  0  0  0  0  0
   12.1910    2.8000    0.0000 C   0  0  0  0  0  0  0  0  0  0  0  0
   14.6159    2.8000    0.0000 F   0  0  0  0  0  0  0  0  0  0  0  0
    9.7662    2.8000    0.0000 C   0  0  0  0  0  0  0  0  0  0  0  0
    8.5537    2.1000    0.0000 C   0  0  2  0  0  0  0  0  0  0  0  0
    7.3413    2.8000    0.0000 N   0  0  0  0  0  0  0  0  0  0  0  0
    8.5537    0.7000    0.0000 C   0  0  0  0  0  0  0  0  0  0  0  0
    9.7662    0.0000    0.0000 N   0  0  0  0  0  0  0  0  0  0  0  0
    6.1289    2.1000    0.0000 C   0  0  0  0  0  0  0  0  0  0  0  0
    6.1289    0.7000    0.0000 O   0  0  0  0  0  0  0  0  0  0  0  0
    3.0521    4.1058    0.0000 C   0  0  0  0  0  0  0  0  0  0  0  0
    2.6322    2.7703    0.0000 C   0  0  0  0  0  0  0  0  0  0  0  0
    3.7727    1.9583    0.0000 S   0  0  0  0  0  0  0  0  0  0  0  0
    4.8974    2.7919    0.0000 C   0  0  0  0  0  0  0  0  0  0  0  0
    4.4520    4.1192    0.0000 C   0  0  0  0  0  0  0  0  0  0  0  0
    1.3049    2.3250    0.0000 Cl  0  0  0  0  0  0  0  0  0  0  0  0
    2.2184    5.2306    0.0000 C   0  0  0  0  0  0  0  0  0  0  0  0
    2.6381    6.5662    0.0000 C   0  0  0  0  0  0  0  0  0  0  0  0
    1.4976    7.3781    0.0000 C   0  0  0  0  0  0  0  0  0  0  0  0
    0.3730    6.5662    0.0000 N   0  0  0  0  0  0  0  0  0  0  0  0
    0.8185    5.2306    0.0000 N   0  0  0  0  0  0  0  0  0  0  0  0
    3.9654    7.0116    0.0000 Cl  0  0  0  0  0  0  0  0  0  0  0  0
    0.0000    4.0947    0.0000 C   0  0  0  0  0  0  0  0  0  0  0  0
  1  2  2  0  0  0  0
  2  3  1  0  0  0  0
  3  4  2  0  0  0  0
  4  5  1  0  0  0  0
  5  6  2  0  0  0  0
  6  1  1  0  0  0  0
  5  7  1  0  0  0  0
  1  8  1  0  0  0  0
  8  9  1  0  0  0  0
  9 10  1  0  0  0  0
  9 11  1  1  0  0  0
 11 12  1  0  0  0  0
 10 13  1  0  0  0  0
 13 14  2  0  0  0  0
 15 16  2  0  0  0  0
 16 17  1  0  0  0  0
 17 18  1  0  0  0  0
 18 19  2  0  0  0  0
 19 15  1  0  0  0  0
 18 13  1  0  0  0  0
 16 20  1  0  0  0  0
 15 21  1  0  0  0  0
 21 22  2  0  0  0  0
 22 23  1  0  0  0  0
 23 24  2  0  0  0  0
 24 25  1  0  0  0  0
 25 21  1  0  0  0  0
 22 26  1  0  0  0  0
 25 27  1  0  0  0  0
M  END
>  <Mol_ID> (498)
2925

>  <Formula> (498)
C18H17Cl2FN4OS

>  <MolWeight> (498)
427.3231832

>  <Cat> (498)
S7521

>  <Name> (498)
Afuresertib (GSK2110183)

>  <Synonyms> (498)
N/A

>  <Target> (498)
Akt

>  <Form> (498)
Free Base

>  <CAS> (498)
1047644-62-1

>  <URL> (498)
http://www.selleckchem.com/products/afuresertib-gsk2110183.html

$$$$
GNE-317.cdx
csChFnd80/05071909292D

 29 33  0  0  0  0  0  0  0  0999 V2000
    4.9235    4.2000    0.0000 C   0  0  0  0  0  0  0  0  0  0  0  0
    4.9235    2.8000    0.0000 C   0  0  0  0  0  0  0  0  0  0  0  0
    6.1359    2.1000    0.0000 N   0  0  0  0  0  0  0  0  0  0  0  0
    7.3484    2.8000    0.0000 C   0  0  0  0  0  0  0  0  0  0  0  0
    7.3484    4.2000    0.0000 N   0  0  0  0  0  0  0  0  0  0  0  0
    6.1359    4.9000    0.0000 C   0  0  0  0  0  0  0  0  0  0  0  0
    3.5920    4.6326    0.0000 S   0  0  0  0  0  0  0  0  0  0  0  0
    2.7691    3.5000    0.0000 C   0  0  0  0  0  0  0  0  0  0  0  0
    3.5920    2.3674    0.0000 C   0  0  0  0  0  0  0  0  0  0  0  0
    3.1594    1.0359    0.0000 C   0  0  0  0  0  0  0  0  0  0  0  0
    6.1359    6.3000    0.0000 N   0  0  0  0  0  0  0  0  0  0  0  0
    8.5608    2.1000    0.0000 C   0  0  0  0  0  0  0  0  0  0  0  0
    8.5608    0.7000    0.0000 C   0  0  0  0  0  0  0  0  0  0  0  0
    9.7732    0.0000    0.0000 N   0  0  0  0  0  0  0  0  0  0  0  0
   10.9857    0.7000    0.0000 C   0  0  0  0  0  0  0  0  0  0  0  0
   10.9857    2.1000    0.0000 N   0  0  0  0  0  0  0  0  0  0  0  0
    9.7732    2.8000    0.0000 C   0  0  0  0  0  0  0  0  0  0  0  0
   12.1981    0.0000    0.0000 N   0  0  0  0  0  0  0  0  0  0  0  0
    7.3484    7.0000    0.0000 C   0  0  0  0  0  0  0  0  0  0  0  0
    7.3484    8.4000    0.0000 C   0  0  0  0  0  0  0  0  0  0  0  0
    6.1359    9.1000    0.0000 O   0  0  0  0  0  0  0  0  0  0  0  0
    4.9235    8.4000    0.0000 C   0  0  0  0  0  0  0  0  0  0  0  0
    4.9235    7.0000    0.0000 C   0  0  0  0  0  0  0  0  0  0  0  0
    0.2792    2.9745    0.0000 C   0  0  0  0  0  0  0  0  0  0  0  0
    0.7564    1.6583    0.0000 O   0  0  0  0  0  0  0  0  0  0  0  0
    2.0726    2.1355    0.0000 C   0  0  0  0  0  0  0  0  0  0  0  0
    1.5954    3.4517    0.0000 C   0  0  0  0  0  0  0  0  0  0  0  0
    1.3249    4.8253    0.0000 O   0  0  0  0  0  0  0  0  0  0  0  0
    0.0000    5.2778    0.0000 C   0  0  0  0  0  0  0  0  0  0  0  0
  1  2  2  0  0  0  0
  2  3  1  0  0  0  0
  3  4  2  0  0  0  0
  4  5  1  0  0  0  0
  5  6  2  0  0  0  0
  6  1  1  0  0  0  0
  1  7  1  0  0  0  0
  7  8  1  0  0  0  0
  8  9  2  0  0  0  0
  9  2  1  0  0  0  0
  9 10  1  0  0  0  0
  6 11  1  0  0  0  0
  4 12  1  0  0  0  0
 12 13  2  0  0  0  0
 13 14  1  0  0  0  0
 14 15  2  0  0  0  0
 15 16  1  0  0  0  0
 16 17  2  0  0  0  0
 17 12  1  0  0  0  0
 15 18  1  0  0  0  0
 11 19  1  0  0  0  0
 19 20  1  0  0  0  0
 20 21  1  0  0  0  0
 21 22  1  0  0  0  0
 22 23  1  0  0  0  0
 23 11  1  0  0  0  0
 24 25  1  0  0  0  0
 25 26  1  0  0  0  0
 26 27  1  0  0  0  0
 27 24  1  0  0  0  0
  8 27  1  0  0  0  0
 27 28  1  0  0  0  0
 28 29  1  0  0  0  0
M  END
>  <Mol_ID> (499)
2926

>  <Formula> (499)
C19H22N6O3S

>  <MolWeight> (499)
414.48138

>  <Cat> (499)
S7798

>  <Name> (499)
GNE-317

>  <Synonyms> (499)
N/A

>  <Target> (499)
PI3K

>  <Form> (499)
Free Base

>  <CAS> (499)
1394076-92-6

>  <URL> (499)
http://www.selleckchem.com/products/gne-317.html

$$$$
LDN-214117.cdx
csChFnd80/05071909292D

 31 34  0  0  0  0  0  0  0  0999 V2000
    7.2746    2.1000    0.0000 C   0  0  0  0  0  0  0  0  0  0  0  0
    7.2746    0.7000    0.0000 C   0  0  0  0  0  0  0  0  0  0  0  0
    8.4870    0.0000    0.0000 N   0  0  0  0  0  0  0  0  0  0  0  0
    9.6995    0.7000    0.0000 C   0  0  0  0  0  0  0  0  0  0  0  0
    9.6995    2.1000    0.0000 C   0  0  0  0  0  0  0  0  0  0  0  0
    8.4870    2.8000    0.0000 C   0  0  0  0  0  0  0  0  0  0  0  0
    6.0622    2.8000    0.0000 C   0  0  0  0  0  0  0  0  0  0  0  0
   10.9119    2.8000    0.0000 C   0  0  0  0  0  0  0  0  0  0  0  0
   10.9119    0.0000    0.0000 C   0  0  0  0  0  0  0  0  0  0  0  0
   12.1244    2.1000    0.0000 C   0  0  0  0  0  0  0  0  0  0  0  0
   13.3368    2.8000    0.0000 C   0  0  0  0  0  0  0  0  0  0  0  0
   13.3368    4.2000    0.0000 C   0  0  0  0  0  0  0  0  0  0  0  0
   12.1244    4.9000    0.0000 C   0  0  0  0  0  0  0  0  0  0  0  0
   10.9119    4.2000    0.0000 C   0  0  0  0  0  0  0  0  0  0  0  0
    6.0622    4.2000    0.0000 C   0  0  0  0  0  0  0  0  0  0  0  0
    4.8497    4.9000    0.0000 C   0  0  0  0  0  0  0  0  0  0  0  0
    3.6373    4.2000    0.0000 C   0  0  0  0  0  0  0  0  0  0  0  0
    3.6373    2.8000    0.0000 C   0  0  0  0  0  0  0  0  0  0  0  0
    4.8497    2.1000    0.0000 C   0  0  0  0  0  0  0  0  0  0  0  0
    2.4249    4.9000    0.0000 N   0  0  0  0  0  0  0  0  0  0  0  0
    2.4249    6.3000    0.0000 C   0  0  0  0  0  0  0  0  0  0  0  0
    1.2124    7.0000    0.0000 C   0  0  0  0  0  0  0  0  0  0  0  0
    0.0000    6.3000    0.0000 N   0  0  0  0  0  0  0  0  0  0  0  0
    0.0000    4.9000    0.0000 C   0  0  0  0  0  0  0  0  0  0  0  0
    1.2124    4.2000    0.0000 C   0  0  0  0  0  0  0  0  0  0  0  0
   12.1244    6.3000    0.0000 O   0  0  0  0  0  0  0  0  0  0  0  0
   10.9119    7.0000    0.0000 C   0  0  0  0  0  0  0  0  0  0  0  0
   14.5492    4.9000    0.0000 O   0  0  0  0  0  0  0  0  0  0  0  0
   15.7617    4.2000    0.0000 C   0  0  0  0  0  0  0  0  0  0  0  0
   14.5492    2.1000    0.0000 O   0  0  0  0  0  0  0  0  0  0  0  0
   15.7617    2.8000    0.0000 C   0  0  0  0  0  0  0  0  0  0  0  0
  1  2  2  0  0  0  0
  2  3  1  0  0  0  0
  3  4  2  0  0  0  0
  4  5  1  0  0  0  0
  5  6  2  0  0  0  0
  6  1  1  0  0  0  0
  1  7  1  0  0  0  0
  5  8  1  0  0  0  0
  4  9  1  0  0  0  0
  8 10  2  0  0  0  0
 10 11  1  0  0  0  0
 11 12  2  0  0  0  0
 12 13  1  0  0  0  0
 13 14  2  0  0  0  0
 14  8  1  0  0  0  0
  7 15  2  0  0  0  0
 15 16  1  0  0  0  0
 16 17  2  0  0  0  0
 17 18  1  0  0  0  0
 18 19  2  0  0  0  0
 19  7  1  0  0  0  0
 17 20  1  0  0  0  0
 20 21  1  0  0  0  0
 21 22  1  0  0  0  0
 22 23  1  0  0  0  0
 23 24  1  0  0  0  0
 24 25  1  0  0  0  0
 25 20  1  0  0  0  0
 13 26  1  0  0  0  0
 26 27  1  0  0  0  0
 12 28  1  0  0  0  0
 28 29  1  0  0  0  0
 11 30  1  0  0  0  0
 30 31  1  0  0  0  0
M  END
>  <Mol_ID> (500)
2928

>  <Formula> (500)
C25H29N3O3

>  <MolWeight> (500)
419.51606

>  <Cat> (500)
S7627

>  <Name> (500)
LDN-214117

>  <Synonyms> (500)
N/A

>  <Target> (500)
TGF-beta/Smad

>  <Form> (500)
Free Base

>  <CAS> (500)
1627503-67-6

>  <URL> (500)
http://www.selleckchem.com/products/ldn-214117.html

$$$$
Purvalanol A.cdx
csChFnd80/05071909292D

 27 29  0  0  0  0  0  0  0  0999 V2000
    4.8497    4.2045    0.0000 N   0  0  0  0  0  0  0  0  0  0  0  0
    4.8497    2.8045    0.0000 C   0  0  0  0  0  0  0  0  0  0  0  0
    6.0622    2.1045    0.0000 N   0  0  0  0  0  0  0  0  0  0  0  0
    7.2746    2.8045    0.0000 C   0  0  0  0  0  0  0  0  0  0  0  0
    7.2746    4.2045    0.0000 C   0  0  0  0  0  0  0  0  0  0  0  0
    6.0622    4.9045    0.0000 C   0  0  0  0  0  0  0  0  0  0  0  0
    8.6061    2.3719    0.0000 N   0  0  0  0  0  0  0  0  0  0  0  0
    9.4290    3.5045    0.0000 C   0  0  0  0  0  0  0  0  0  0  0  0
    8.6061    4.6371    0.0000 N   0  0  0  0  0  0  0  0  0  0  0  0
    6.0622    6.3045    0.0000 N   0  0  0  0  0  0  0  0  0  0  0  0
    4.8497    7.0045    0.0000 C   0  0  0  0  0  0  0  0  0  0  0  0
    4.8497    8.4045    0.0000 C   0  0  0  0  0  0  0  0  0  0  0  0
    3.6373    9.1045    0.0000 C   0  0  0  0  0  0  0  0  0  0  0  0
    2.4249    8.4045    0.0000 C   0  0  0  0  0  0  0  0  0  0  0  0
    2.4249    7.0045    0.0000 C   0  0  0  0  0  0  0  0  0  0  0  0
    3.6373    6.3045    0.0000 C   0  0  0  0  0  0  0  0  0  0  0  0
    1.2124    6.3045    0.0000 Cl  0  0  0  0  0  0  0  0  0  0  0  0
    9.0387    1.0404    0.0000 C   0  0  0  0  0  0  0  0  0  0  0  0
    8.1019    0.0000    0.0000 C   0  0  0  0  0  0  0  0  0  0  0  0
   10.4081    0.7493    0.0000 C   0  0  0  0  0  0  0  0  0  0  0  0
    3.6373    2.1045    0.0000 N   0  0  0  0  0  0  0  0  0  0  0  0
    2.4249    2.8045    0.0000 C   0  0  2  0  0  0  0  0  0  0  0  0
    1.2124    2.1045    0.0000 C   0  0  0  0  0  0  0  0  0  0  0  0
    0.0000    2.8045    0.0000 C   0  0  0  0  0  0  0  0  0  0  0  0
    1.2124    0.7045    0.0000 C   0  0  0  0  0  0  0  0  0  0  0  0
    2.4249    4.2045    0.0000 C   0  0  0  0  0  0  0  0  0  0  0  0
    1.2124    4.9045    0.0000 O   0  0  0  0  0  0  0  0  0  0  0  0
  1  2  2  0  0  0  0
  2  3  1  0  0  0  0
  3  4  2  0  0  0  0
  4  5  1  0  0  0  0
  5  6  2  0  0  0  0
  6  1  1  0  0  0  0
  4  7  1  0  0  0  0
  7  8  1  0  0  0  0
  8  9  2  0  0  0  0
  9  5  1  0  0  0  0
  6 10  1  0  0  0  0
 10 11  1  0  0  0  0
 11 12  2  0  0  0  0
 12 13  1  0  0  0  0
 13 14  2  0  0  0  0
 14 15  1  0  0  0  0
 15 16  2  0  0  0  0
 16 11  1  0  0  0  0
 15 17  1  0  0  0  0
  7 18  1  0  0  0  0
 18 19  1  0  0  0  0
 18 20  1  0  0  0  0
  2 21  1  0  0  0  0
 21 22  1  0  0  0  0
 22 23  1  0  0  0  0
 23 24  1  0  0  0  0
 23 25  1  0  0  0  0
 22 26  1  6  0  0  0
 26 27  1  0  0  0  0
M  END
>  <Mol_ID> (501)
2930

>  <Formula> (501)
C19H25ClN6O

>  <MolWeight> (501)
388.8944

>  <Cat> (501)
S7793

>  <Name> (501)
Purvalanol A

>  <Synonyms> (501)
N/A

>  <Target> (501)
CDK

>  <Form> (501)
Free Base

>  <CAS> (501)
212844-53-6

>  <URL> (501)
http://www.selleckchem.com/products/purvalanol-a.html

$$$$
AZD2932.cdx
csChFnd80/05071909292D

 33 36  0  0  0  0  0  0  0  0999 V2000
    2.4249    2.1000    0.0000 C   0  0  0  0  0  0  0  0  0  0  0  0
    2.4249    0.7000    0.0000 C   0  0  0  0  0  0  0  0  0  0  0  0
    3.6373    0.0000    0.0000 C   0  0  0  0  0  0  0  0  0  0  0  0
    4.8497    0.7000    0.0000 C   0  0  0  0  0  0  0  0  0  0  0  0
    4.8497    2.1000    0.0000 C   0  0  0  0  0  0  0  0  0  0  0  0
    3.6373    2.8000    0.0000 C   0  0  0  0  0  0  0  0  0  0  0  0
    6.0622    0.0000    0.0000 N   0  0  0  0  0  0  0  0  0  0  0  0
    7.2746    0.7000    0.0000 C   0  0  0  0  0  0  0  0  0  0  0  0
    7.2746    2.1000    0.0000 N   0  0  0  0  0  0  0  0  0  0  0  0
    6.0622    2.8000    0.0000 C   0  0  0  0  0  0  0  0  0  0  0  0
    1.2124    2.8000    0.0000 O   0  0  0  0  0  0  0  0  0  0  0  0
    1.2124    0.0000    0.0000 O   0  0  0  0  0  0  0  0  0  0  0  0
    0.0000    2.1000    0.0000 C   0  0  0  0  0  0  0  0  0  0  0  0
    0.0000    0.7000    0.0000 C   0  0  0  0  0  0  0  0  0  0  0  0
    6.0622    4.2000    0.0000 O   0  0  0  0  0  0  0  0  0  0  0  0
    7.2746    4.9000    0.0000 C   0  0  0  0  0  0  0  0  0  0  0  0
    8.4871    4.2000    0.0000 C   0  0  0  0  0  0  0  0  0  0  0  0
    9.6995    4.9000    0.0000 C   0  0  0  0  0  0  0  0  0  0  0  0
    9.6995    6.3000    0.0000 C   0  0  0  0  0  0  0  0  0  0  0  0
    8.4871    7.0000    0.0000 C   0  0  0  0  0  0  0  0  0  0  0  0
    7.2746    6.3000    0.0000 C   0  0  0  0  0  0  0  0  0  0  0  0
   10.9119    7.0000    0.0000 C   0  0  0  0  0  0  0  0  0  0  0  0
   12.1244    6.3000    0.0000 C   0  0  0  0  0  0  0  0  0  0  0  0
   13.3368    7.0000    0.0000 N   0  0  0  0  0  0  0  0  0  0  0  0
   12.1244    4.9000    0.0000 O   0  0  0  0  0  0  0  0  0  0  0  0
   14.5492    6.3000    0.0000 C   0  0  0  0  0  0  0  0  0  0  0  0
   14.6956    4.9077    0.0000 C   0  0  0  0  0  0  0  0  0  0  0  0
   16.0650    4.6166    0.0000 N   0  0  0  0  0  0  0  0  0  0  0  0
   16.7650    5.8290    0.0000 N   0  0  0  0  0  0  0  0  0  0  0  0
   15.8282    6.8694    0.0000 C   0  0  0  0  0  0  0  0  0  0  0  0
   18.1573    5.9754    0.0000 C   0  0  0  0  0  0  0  0  0  0  0  0
   18.9964    4.8547    0.0000 C   0  0  0  0  0  0  0  0  0  0  0  0
   18.7175    7.2584    0.0000 C   0  0  0  0  0  0  0  0  0  0  0  0
  1  2  2  0  0  0  0
  2  3  1  0  0  0  0
  3  4  2  0  0  0  0
  4  5  1  0  0  0  0
  5  6  2  0  0  0  0
  6  1  1  0  0  0  0
  4  7  1  0  0  0  0
  7  8  2  0  0  0  0
  8  9  1  0  0  0  0
  9 10  2  0  0  0  0
 10  5  1  0  0  0  0
  1 11  1  0  0  0  0
  2 12  1  0  0  0  0
 11 13  1  0  0  0  0
 12 14  1  0  0  0  0
 10 15  1  0  0  0  0
 15 16  1  0  0  0  0
 16 17  2  0  0  0  0
 17 18  1  0  0  0  0
 18 19  2  0  0  0  0
 19 20  1  0  0  0  0
 20 21  2  0  0  0  0
 21 16  1  0  0  0  0
 19 22  1  0  0  0  0
 22 23  1  0  0  0  0
 23 24  1  0  0  0  0
 23 25  2  0  0  0  0
 24 26  1  0  0  0  0
 26 27  1  0  0  0  0
 27 28  2  0  0  0  0
 28 29  1  0  0  0  0
 29 30  1  0  0  0  0
 30 26  2  0  0  0  0
 29 31  1  0  0  0  0
 31 32  1  0  0  0  0
 31 33  1  0  0  0  0
M  END
>  <Mol_ID> (502)
2931

>  <Formula> (502)
C24H25N5O4

>  <MolWeight> (502)
447.4864

>  <Cat> (502)
S7003

>  <Name> (502)
AZD2932

>  <Synonyms> (502)
N/A

>  <Target> (502)
PDGFR

>  <Form> (502)
Free Base

>  <CAS> (502)
883986-34-3

>  <URL> (502)
http://www.selleckchem.com/products/azd2932.html

$$$$
ERK5-IN-1.cdx
csChFnd80/05071909292D

 47 53  0  0  0  0  0  0  0  0999 V2000
    6.0453   12.5830    0.0000 N   0  0  0  0  0  0  0  0  0  0  0  0
    6.0453   11.1830    0.0000 C   0  0  0  0  0  0  0  0  0  0  0  0
    7.2578   10.4830    0.0000 N   0  0  0  0  0  0  0  0  0  0  0  0
    8.4702   11.1830    0.0000 C   0  0  0  0  0  0  0  0  0  0  0  0
    8.4702   12.5830    0.0000 C   0  0  0  0  0  0  0  0  0  0  0  0
    7.2578   13.2830    0.0000 C   0  0  0  0  0  0  0  0  0  0  0  0
    9.5648   10.3101    0.0000 N   0  0  0  0  0  0  0  0  0  0  0  0
   10.9297   10.6216    0.0000 C   0  0  0  0  0  0  0  0  0  0  0  0
   11.5371   11.8830    0.0000 C   0  0  0  0  0  0  0  0  0  0  0  0
   10.9297   13.1443    0.0000 C   0  0  0  0  0  0  0  0  0  0  0  0
    9.5648   13.4559    0.0000 N   0  0  0  0  0  0  0  0  0  0  0  0
   11.7183    9.4649    0.0000 C   0  0  0  0  0  0  0  0  0  0  0  0
   13.1144    9.5695    0.0000 C   0  0  0  0  0  0  0  0  0  0  0  0
   13.7218   10.8309    0.0000 C   0  0  0  0  0  0  0  0  0  0  0  0
   12.9332   11.9876    0.0000 C   0  0  0  0  0  0  0  0  0  0  0  0
    9.2532    8.9452    0.0000 C   0  0  0  0  0  0  0  0  0  0  0  0
    9.2532   14.8208    0.0000 C   0  0  0  0  0  0  0  0  0  0  0  0
   11.8026   14.2389    0.0000 O   0  0  0  0  0  0  0  0  0  0  0  0
    7.9659    8.3950    0.0000 C   0  0  0  0  0  0  0  0  0  0  0  0
    8.0914    7.0006    0.0000 C   0  0  0  0  0  0  0  0  0  0  0  0
    9.4563    6.6891    0.0000 C   0  0  0  0  0  0  0  0  0  0  0  0
   10.1744    7.8909    0.0000 C   0  0  0  0  0  0  0  0  0  0  0  0
    4.8371   10.4854    0.0000 N   0  0  0  0  0  0  0  0  0  0  0  0
    4.8371    9.0903    0.0000 C   0  0  0  0  0  0  0  0  0  0  0  0
    3.6247    8.3903    0.0000 C   0  0  0  0  0  0  0  0  0  0  0  0
    3.6247    6.9903    0.0000 C   0  0  0  0  0  0  0  0  0  0  0  0
    4.8371    6.2903    0.0000 C   0  0  0  0  0  0  0  0  0  0  0  0
    6.0496    6.9903    0.0000 C   0  0  0  0  0  0  0  0  0  0  0  0
    6.0496    8.3903    0.0000 C   0  0  0  0  0  0  0  0  0  0  0  0
    2.4165    9.0879    0.0000 O   0  0  0  0  0  0  0  0  0  0  0  0
    1.2082    8.3903    0.0000 C   0  0  0  0  0  0  0  0  0  0  0  0
    4.8371    4.8951    0.0000 C   0  0  0  0  0  0  0  0  0  0  0  0
    6.0453    4.1976    0.0000 N   0  0  0  0  0  0  0  0  0  0  0  0
    3.6289    4.1976    0.0000 O   0  0  0  0  0  0  0  0  0  0  0  0
    6.0453    2.7976    0.0000 C   0  0  0  0  0  0  0  0  0  0  0  0
    7.2578    2.0976    0.0000 C   0  0  0  0  0  0  0  0  0  0  0  0
    8.4702    2.7976    0.0000 C   0  0  0  0  0  0  0  0  0  0  0  0
    8.4702    4.1976    0.0000 C   0  0  0  0  0  0  0  0  0  0  0  0
    7.2578    4.8976    0.0000 C   0  0  0  0  0  0  0  0  0  0  0  0
    9.6784    2.1000    0.0000 N   0  0  0  0  0  0  0  0  0  0  0  0
    9.6784    0.7000    0.0000 C   0  0  0  0  0  0  0  0  0  0  0  0
   10.8909    0.0000    0.0000 C   0  0  0  0  0  0  0  0  0  0  0  0
   12.1033    0.7000    0.0000 N   0  0  0  0  0  0  0  0  0  0  0  0
   12.1033    2.1000    0.0000 C   0  0  0  0  0  0  0  0  0  0  0  0
   10.8909    2.8000    0.0000 C   0  0  0  0  0  0  0  0  0  0  0  0
   13.3115    0.0024    0.0000 C   0  0  0  0  0  0  0  0  0  0  0  0
    0.0000    9.0879    0.0000 C   0  0  0  0  0  0  0  0  0  0  0  0
  1  2  2  0  0  0  0
  2  3  1  0  0  0  0
  3  4  2  0  0  0  0
  4  5  1  0  0  0  0
  5  6  2  0  0  0  0
  6  1  1  0  0  0  0
  4  7  1  0  0  0  0
  7  8  1  0  0  0  0
  8  9  2  0  0  0  0
  9 10  1  0  0  0  0
 10 11  1  0  0  0  0
 11  5  1  0  0  0  0
  8 12  1  0  0  0  0
 12 13  2  0  0  0  0
 13 14  1  0  0  0  0
 14 15  2  0  0  0  0
 15  9  1  0  0  0  0
  7 16  1  0  0  0  0
 11 17  1  0  0  0  0
 10 18  2  0  0  0  0
 16 19  1  0  0  0  0
 19 20  1  0  0  0  0
 20 21  1  0  0  0  0
 21 22  1  0  0  0  0
 22 16  1  0  0  0  0
  2 23  1  0  0  0  0
 23 24  1  0  0  0  0
 24 25  2  0  0  0  0
 25 26  1  0  0  0  0
 26 27  2  0  0  0  0
 27 28  1  0  0  0  0
 28 29  2  0  0  0  0
 29 24  1  0  0  0  0
 25 30  1  0  0  0  0
 30 31  1  0  0  0  0
 27 32  1  0  0  0  0
 32 33  1  0  0  0  0
 32 34  2  0  0  0  0
 33 35  1  0  0  0  0
 35 36  1  0  0  0  0
 36 37  1  0  0  0  0
 37 38  1  0  0  0  0
 38 39  1  0  0  0  0
 39 33  1  0  0  0  0
 37 40  1  0  0  0  0
 40 41  1  0  0  0  0
 41 42  1  0  0  0  0
 42 43  1  0  0  0  0
 43 44  1  0  0  0  0
 44 45  1  0  0  0  0
 45 40  1  0  0  0  0
 43 46  1  0  0  0  0
 31 47  1  0  0  0  0
M  END
>  <Mol_ID> (503)
2936

>  <Formula> (503)
C36H46N8O3

>  <MolWeight> (503)
638.80224

>  <Cat> (503)
S7334

>  <Name> (503)
ERK5-IN-1

>  <Synonyms> (503)
N/A

>  <Target> (503)
ERK

>  <Form> (503)
Free Base

>  <CAS> (503)
1435488-37-1

>  <URL> (503)
http://www.selleckchem.com/products/erk5-in-1.html

$$$$
SU6656.cdx
csChFnd80/05071909292D

 26 29  0  0  0  0  0  0  0  0999 V2000
    3.6373    2.1000    0.0000 C   0  0  0  0  0  0  0  0  0  0  0  0
    3.6373    0.7000    0.0000 C   0  0  0  0  0  0  0  0  0  0  0  0
    4.8497    0.0000    0.0000 C   0  0  0  0  0  0  0  0  0  0  0  0
    6.0622    0.7000    0.0000 C   0  0  0  0  0  0  0  0  0  0  0  0
    6.0622    2.1000    0.0000 C   0  0  0  0  0  0  0  0  0  0  0  0
    4.8497    2.8000    0.0000 C   0  0  0  0  0  0  0  0  0  0  0  0
    7.3937    0.2674    0.0000 N   0  0  0  0  0  0  0  0  0  0  0  0
    8.2166    1.4000    0.0000 C   0  0  0  0  0  0  0  0  0  0  0  0
    7.3937    2.5326    0.0000 C   0  0  0  0  0  0  0  0  0  0  0  0
    7.8263    3.8641    0.0000 C   0  0  0  0  0  0  0  0  0  0  0  0
    9.6166    1.4000    0.0000 O   0  0  0  0  0  0  0  0  0  0  0  0
    9.1957    4.1552    0.0000 C   0  0  0  0  0  0  0  0  0  0  0  0
   10.2361    3.2184    0.0000 N   0  0  0  0  0  0  0  0  0  0  0  0
   11.4485    3.9184    0.0000 C   0  0  0  0  0  0  0  0  0  0  0  0
   11.1574    5.2878    0.0000 C   0  0  0  0  0  0  0  0  0  0  0  0
    9.7651    5.4341    0.0000 C   0  0  0  0  0  0  0  0  0  0  0  0
   12.7800    3.4858    0.0000 C   0  0  0  0  0  0  0  0  0  0  0  0
   13.8204    4.4226    0.0000 C   0  0  0  0  0  0  0  0  0  0  0  0
   13.5293    5.7920    0.0000 C   0  0  0  0  0  0  0  0  0  0  0  0
   12.1979    6.2246    0.0000 C   0  0  0  0  0  0  0  0  0  0  0  0
    2.4249    2.8000    0.0000 S   0  0  0  0  0  0  0  0  0  0  0  0
    1.2124    2.1000    0.0000 N   0  0  0  0  0  0  0  0  0  0  0  0
    0.0000    2.8000    0.0000 C   0  0  0  0  0  0  0  0  0  0  0  0
    1.2124    0.7000    0.0000 C   0  0  0  0  0  0  0  0  0  0  0  0
    2.4249    4.2000    0.0000 O   0  0  0  0  0  0  0  0  0  0  0  0
    2.4249    1.4000    0.0000 O   0  0  0  0  0  0  0  0  0  0  0  0
  1  2  2  0  0  0  0
  2  3  1  0  0  0  0
  3  4  2  0  0  0  0
  4  5  1  0  0  0  0
  5  6  2  0  0  0  0
  6  1  1  0  0  0  0
  4  7  1  0  0  0  0
  7  8  1  0  0  0  0
  8  9  1  0  0  0  0
  9  5  1  0  0  0  0
  9 10  2  0  0  0  0
  8 11  2  0  0  0  0
 10 12  1  0  0  0  0
 12 13  1  0  0  0  0
 13 14  1  0  0  0  0
 14 15  2  0  0  0  0
 15 16  1  0  0  0  0
 16 12  2  0  0  0  0
 14 17  1  0  0  0  0
 17 18  1  0  0  0  0
 18 19  1  0  0  0  0
 19 20  1  0  0  0  0
 20 15  1  0  0  0  0
  1 21  1  0  0  0  0
 21 22  1  0  0  0  0
 22 23  1  0  0  0  0
 22 24  1  0  0  0  0
 21 25  2  0  0  0  0
 21 26  2  0  0  0  0
M  END
>  <Mol_ID> (504)
2937

>  <Formula> (504)
C19H21N3O3S

>  <MolWeight> (504)
371.45334

>  <Cat> (504)
S7774

>  <Name> (504)
SU6656

>  <Synonyms> (504)
N/A

>  <Target> (504)
Src

>  <Form> (504)
Free Base

>  <CAS> (504)
330161-87-0

>  <URL> (504)
http://www.selleckchem.com/products/su6656.html

$$$$
D 4476.cdx
csChFnd80/05071909292D

 30 34  0  0  0  0  0  0  0  0999 V2000
    4.9171    5.7977    0.0000 N   0  0  0  0  0  0  0  0  0  0  0  0
    5.3204    4.4570    0.0000 C   0  0  0  0  0  0  0  0  0  0  0  0
    6.7200    4.4263    0.0000 C   0  0  0  0  0  0  0  0  0  0  0  0
    7.1818    5.7479    0.0000 N   0  0  0  0  0  0  0  0  0  0  0  0
    6.0675    6.5955    0.0000 C   0  0  0  0  0  0  0  0  0  0  0  0
    6.0983    7.9952    0.0000 C   0  0  0  0  0  0  0  0  0  0  0  0
    7.3258    8.6684    0.0000 C   0  0  0  0  0  0  0  0  0  0  0  0
    7.3566   10.0680    0.0000 C   0  0  0  0  0  0  0  0  0  0  0  0
    6.1599   10.7945    0.0000 C   0  0  0  0  0  0  0  0  0  0  0  0
    4.9323   10.1213    0.0000 C   0  0  0  0  0  0  0  0  0  0  0  0
    4.9016    8.7217    0.0000 C   0  0  0  0  0  0  0  0  0  0  0  0
    6.1906   12.1942    0.0000 C   0  0  0  0  0  0  0  0  0  0  0  0
    4.9939   12.9206    0.0000 N   0  0  0  0  0  0  0  0  0  0  0  0
    7.4182   12.8673    0.0000 O   0  0  0  0  0  0  0  0  0  0  0  0
    4.4728    3.3428    0.0000 C   0  0  0  0  0  0  0  0  0  0  0  0
    7.5178    3.2758    0.0000 C   0  0  0  0  0  0  0  0  0  0  0  0
    6.9204    2.0097    0.0000 C   0  0  0  0  0  0  0  0  0  0  0  0
    7.7182    0.8592    0.0000 C   0  0  0  0  0  0  0  0  0  0  0  0
    9.1134    0.9749    0.0000 C   0  0  0  0  0  0  0  0  0  0  0  0
    9.7108    2.2411    0.0000 C   0  0  0  0  0  0  0  0  0  0  0  0
    8.9130    3.3915    0.0000 N   0  0  0  0  0  0  0  0  0  0  0  0
    3.0840    3.5197    0.0000 C   0  0  0  0  0  0  0  0  0  0  0  0
    2.2364    2.4054    0.0000 C   0  0  0  0  0  0  0  0  0  0  0  0
    2.7776    1.1143    0.0000 C   0  0  0  0  0  0  0  0  0  0  0  0
    4.1663    0.9373    0.0000 C   0  0  0  0  0  0  0  0  0  0  0  0
    5.0139    2.0516    0.0000 C   0  0  0  0  0  0  0  0  0  0  0  0
    0.8476    2.5823    0.0000 O   0  0  0  0  0  0  0  0  0  0  0  0
    0.0000    1.4681    0.0000 C   0  0  0  0  0  0  0  0  0  0  0  0
    0.5412    0.1769    0.0000 C   0  0  0  0  0  0  0  0  0  0  0  0
    1.9300    0.0000    0.0000 O   0  0  0  0  0  0  0  0  0  0  0  0
  1  2  1  0  0  0  0
  2  3  2  0  0  0  0
  3  4  1  0  0  0  0
  4  5  1  0  0  0  0
  5  1  2  0  0  0  0
  5  6  1  0  0  0  0
  6  7  2  0  0  0  0
  7  8  1  0  0  0  0
  8  9  2  0  0  0  0
  9 10  1  0  0  0  0
 10 11  2  0  0  0  0
 11  6  1  0  0  0  0
  9 12  1  0  0  0  0
 12 13  1  0  0  0  0
 12 14  2  0  0  0  0
  2 15  1  0  0  0  0
  3 16  1  0  0  0  0
 16 17  2  0  0  0  0
 17 18  1  0  0  0  0
 18 19  2  0  0  0  0
 19 20  1  0  0  0  0
 20 21  2  0  0  0  0
 21 16  1  0  0  0  0
 15 22  2  0  0  0  0
 22 23  1  0  0  0  0
 23 24  2  0  0  0  0
 24 25  1  0  0  0  0
 25 26  2  0  0  0  0
 26 15  1  0  0  0  0
 23 27  1  0  0  0  0
 27 28  1  0  0  0  0
 28 29  1  0  0  0  0
 29 30  1  0  0  0  0
 30 24  1  0  0  0  0
M  END
>  <Mol_ID> (505)
2941

>  <Formula> (505)
C23H18N4O3

>  <MolWeight> (505)
398.41402

>  <Cat> (505)
S7642

>  <Name> (505)
D 4476

>  <Synonyms> (505)
N/A

>  <Target> (505)
Others

>  <Form> (505)
Free Base

>  <CAS> (505)
301836-43-1

>  <URL> (505)
http://www.selleckchem.com/products/d-4476.html

$$$$
XL147.cdx
csChFnd80/05071909292D

 37 40  0  0  0  0  0  0  0  0999 V2000
    0.0000    4.1976    0.0000 C   0  0  0  0  0  0  0  0  0  0  0  0
    0.0000    2.7976    0.0000 C   0  0  0  0  0  0  0  0  0  0  0  0
    1.2124    2.0976    0.0000 C   0  0  0  0  0  0  0  0  0  0  0  0
    2.4249    2.7976    0.0000 C   0  0  0  0  0  0  0  0  0  0  0  0
    2.4249    4.1976    0.0000 C   0  0  0  0  0  0  0  0  0  0  0  0
    1.2124    4.8976    0.0000 C   0  0  0  0  0  0  0  0  0  0  0  0
    3.6373    2.0976    0.0000 N   0  0  0  0  0  0  0  0  0  0  0  0
    4.8497    2.7976    0.0000 C   0  0  0  0  0  0  0  0  0  0  0  0
    4.8497    4.1976    0.0000 C   0  0  0  0  0  0  0  0  0  0  0  0
    3.6373    4.8976    0.0000 N   0  0  0  0  0  0  0  0  0  0  0  0
    6.0580    4.8951    0.0000 N   0  0  0  0  0  0  0  0  0  0  0  0
    6.0580    6.2903    0.0000 C   0  0  0  0  0  0  0  0  0  0  0  0
    6.0580    2.1000    0.0000 N   0  0  0  0  0  0  0  0  0  0  0  0
    7.2662    2.7976    0.0000 S   0  0  0  0  0  0  0  0  0  0  0  0
    8.4744    2.1000    0.0000 C   0  0  0  0  0  0  0  0  0  0  0  0
    8.4744    0.7000    0.0000 C   0  0  0  0  0  0  0  0  0  0  0  0
    9.6869    0.0000    0.0000 C   0  0  0  0  0  0  0  0  0  0  0  0
   10.8993    0.7000    0.0000 C   0  0  0  0  0  0  0  0  0  0  0  0
   10.8993    2.1000    0.0000 C   0  0  0  0  0  0  0  0  0  0  0  0
    9.6869    2.8000    0.0000 C   0  0  0  0  0  0  0  0  0  0  0  0
   12.1075    2.7976    0.0000 N   0  0  0  0  0  0  0  0  0  0  0  0
   13.3158    2.1000    0.0000 C   0  0  0  0  0  0  0  0  0  0  0  0
   14.5240    2.7976    0.0000 C   0  0  0  0  0  0  0  0  0  0  0  0
   15.7322    2.1000    0.0000 N   0  0  0  0  0  0  0  0  0  0  0  0
    7.2704    6.9903    0.0000 C   0  0  0  0  0  0  0  0  0  0  0  0
    7.2704    8.3903    0.0000 C   0  0  0  0  0  0  0  0  0  0  0  0
    6.0580    9.0903    0.0000 C   0  0  0  0  0  0  0  0  0  0  0  0
    4.8455    8.3903    0.0000 C   0  0  0  0  0  0  0  0  0  0  0  0
    4.8455    6.9903    0.0000 C   0  0  0  0  0  0  0  0  0  0  0  0
    3.6373    9.0879    0.0000 O   0  0  0  0  0  0  0  0  0  0  0  0
    2.4291    8.3903    0.0000 C   0  0  0  0  0  0  0  0  0  0  0  0
    8.4786    6.2927    0.0000 Cl  0  0  0  0  0  0  0  0  0  0  0  0
    7.2662    4.1927    0.0000 O   0  0  0  0  0  0  0  0  0  0  0  0
    7.2662    1.4024    0.0000 O   0  0  0  0  0  0  0  0  0  0  0  0
   13.3158    0.7049    0.0000 O   0  0  0  0  0  0  0  0  0  0  0  0
   15.2240    4.0100    0.0000 C   0  0  0  0  0  0  0  0  0  0  0  0
   13.8240    4.0100    0.0000 C   0  0  0  0  0  0  0  0  0  0  0  0
  1  2  2  0  0  0  0
  2  3  1  0  0  0  0
  3  4  2  0  0  0  0
  4  5  1  0  0  0  0
  5  6  2  0  0  0  0
  6  1  1  0  0  0  0
  4  7  1  0  0  0  0
  7  8  2  0  0  0  0
  8  9  1  0  0  0  0
  9 10  2  0  0  0  0
 10  5  1  0  0  0  0
  9 11  1  0  0  0  0
 11 12  1  0  0  0  0
  8 13  1  0  0  0  0
 13 14  1  0  0  0  0
 14 15  1  0  0  0  0
 15 16  2  0  0  0  0
 16 17  1  0  0  0  0
 17 18  2  0  0  0  0
 18 19  1  0  0  0  0
 19 20  2  0  0  0  0
 20 15  1  0  0  0  0
 19 21  1  0  0  0  0
 21 22  1  0  0  0  0
 22 23  1  0  0  0  0
 23 24  1  0  0  0  0
 12 25  2  0  0  0  0
 25 26  1  0  0  0  0
 26 27  2  0  0  0  0
 27 28  1  0  0  0  0
 28 29  2  0  0  0  0
 29 12  1  0  0  0  0
 28 30  1  0  0  0  0
 30 31  1  0  0  0  0
 25 32  1  0  0  0  0
 14 33  2  0  0  0  0
 14 34  2  0  0  0  0
 22 35  2  0  0  0  0
 23 36  1  0  0  0  0
 37 23  1  0  0  0  0
M  END
>  <Mol_ID> (506)
2942

>  <Formula> (506)
C25H25ClN6O4S

>  <MolWeight> (506)
541.0218

>  <Cat> (506)
S7645

>  <Name> (506)
Pilaralisib (XL147)

>  <Synonyms> (506)
N/A

>  <Target> (506)
PI3K

>  <Form> (506)
Free Base

>  <CAS> (506)
934526-89-3

>  <URL> (506)
http://www.selleckchem.com/products/pilaralisib-xl147.html

$$$$
AT7519 HCl.cdx
csChFnd80/05071909292D

 26 27  0  0  0  0  0  0  0  0999 V2000
    1.2082    7.7422    0.0000 C   0  0  0  0  0  0  0  0  0  0  0  0
    1.2082    6.3422    0.0000 C   0  0  0  0  0  0  0  0  0  0  0  0
    2.4207    5.6422    0.0000 C   0  0  0  0  0  0  0  0  0  0  0  0
    3.6331    6.3422    0.0000 C   0  0  0  0  0  0  0  0  0  0  0  0
    3.6331    7.7422    0.0000 C   0  0  0  0  0  0  0  0  0  0  0  0
    2.4207    8.4422    0.0000 C   0  0  0  0  0  0  0  0  0  0  0  0
    0.0000    5.6447    0.0000 Cl  0  0  0  0  0  0  0  0  0  0  0  0
    4.8413    5.6447    0.0000 Cl  0  0  0  0  0  0  0  0  0  0  0  0
    2.4207    4.2471    0.0000 C   0  0  0  0  0  0  0  0  0  0  0  0
    3.6289    3.5495    0.0000 N   0  0  0  0  0  0  0  0  0  0  0  0
    1.2124    3.5495    0.0000 O   0  0  0  0  0  0  0  0  0  0  0  0
    3.6289    2.1544    0.0000 C   0  0  0  0  0  0  0  0  0  0  0  0
    2.4963    1.3315    0.0000 C   0  0  0  0  0  0  0  0  0  0  0  0
    2.9289    0.0000    0.0000 N   0  0  0  0  0  0  0  0  0  0  0  0
    4.3289    0.0000    0.0000 N   0  0  0  0  0  0  0  0  0  0  0  0
    4.7615    1.3315    0.0000 C   0  0  0  0  0  0  0  0  0  0  0  0
    6.0884    1.7626    0.0000 C   0  0  0  0  0  0  0  0  0  0  0  0
    6.3784    3.1273    0.0000 O   0  0  0  0  0  0  0  0  0  0  0  0
    7.1252    0.8291    0.0000 N   0  0  0  0  0  0  0  0  0  0  0  0
    8.4520    1.2602    0.0000 C   0  0  0  0  0  0  0  0  0  0  0  0
    9.4924    0.3234    0.0000 C   0  0  0  0  0  0  0  0  0  0  0  0
   10.8239    0.7560    0.0000 C   0  0  0  0  0  0  0  0  0  0  0  0
   11.1150    2.1254    0.0000 N   0  0  0  0  0  0  0  0  0  0  0  0
   10.0746    3.0622    0.0000 C   0  0  0  0  0  0  0  0  0  0  0  0
    8.7431    2.6296    0.0000 C   0  0  0  0  0  0  0  0  0  0  0  0
    8.6034    5.4526    0.0000 Cl  0  0  0  0  0  0  0  0  0  0  0  0
  1  2  2  0  0  0  0
  2  3  1  0  0  0  0
  3  4  2  0  0  0  0
  4  5  1  0  0  0  0
  5  6  2  0  0  0  0
  6  1  1  0  0  0  0
  2  7  1  0  0  0  0
  4  8  1  0  0  0  0
  3  9  1  0  0  0  0
  9 10  1  0  0  0  0
  9 11  2  0  0  0  0
 10 12  1  0  0  0  0
 12 13  2  0  0  0  0
 13 14  1  0  0  0  0
 14 15  1  0  0  0  0
 15 16  2  0  0  0  0
 16 12  1  0  0  0  0
 16 17  1  0  0  0  0
 17 18  2  0  0  0  0
 17 19  1  0  0  0  0
 19 20  1  0  0  0  0
 20 21  1  0  0  0  0
 21 22  1  0  0  0  0
 22 23  1  0  0  0  0
 23 24  1  0  0  0  0
 24 25  1  0  0  0  0
 25 20  1  0  0  0  0
M  END
>  <Mol_ID> (507)
2944

>  <Formula> (507)
C16H18Cl3N5O2

>  <MolWeight> (507)
418.70542

>  <Cat> (507)
S7808

>  <Name> (507)
AT7519 HCl

>  <Synonyms> (507)
N/A

>  <Target> (507)
CDK

>  <Form> (507)
Hydrochloride

>  <CAS> (507)
902135-91-5

>  <URL> (507)
http://www.selleckchem.com/products/at7519-hcl.html

$$$$
ARRY-614.cdx
csChFnd80/05071909292D

 41 45  0  0  0  0  0  0  0  0999 V2000
    3.5584    4.7764    0.0000 C   0  0  0  0  0  0  0  0  0  0  0  0
    3.5584    3.3764    0.0000 C   0  0  0  0  0  0  0  0  0  0  0  0
    4.7708    2.6764    0.0000 C   0  0  0  0  0  0  0  0  0  0  0  0
    5.9832    3.3764    0.0000 C   0  0  0  0  0  0  0  0  0  0  0  0
    5.9832    4.7764    0.0000 C   0  0  0  0  0  0  0  0  0  0  0  0
    4.7708    5.4764    0.0000 C   0  0  0  0  0  0  0  0  0  0  0  0
    2.2269    5.2090    0.0000 C   0  0  0  0  0  0  0  0  0  0  0  0
    1.4040    4.0764    0.0000 N   0  0  0  0  0  0  0  0  0  0  0  0
    2.2269    2.9438    0.0000 N   0  0  0  0  0  0  0  0  0  0  0  0
    1.7958    1.6169    0.0000 C   0  0  0  0  0  0  0  0  0  0  0  0
    0.4311    1.3269    0.0000 C   0  0  0  0  0  0  0  0  0  0  0  0
    0.0000    0.0000    0.0000 O   0  0  0  0  0  0  0  0  0  0  0  0
    7.1915    5.4740    0.0000 O   0  0  0  0  0  0  0  0  0  0  0  0
    7.1915    6.8691    0.0000 C   0  0  0  0  0  0  0  0  0  0  0  0
    8.4039    7.5691    0.0000 C   0  0  0  0  0  0  0  0  0  0  0  0
    8.4039    8.9691    0.0000 C   0  0  0  0  0  0  0  0  0  0  0  0
    7.1915    9.6691    0.0000 C   0  0  0  0  0  0  0  0  0  0  0  0
    5.9790    8.9691    0.0000 C   0  0  0  0  0  0  0  0  0  0  0  0
    5.9790    7.5691    0.0000 C   0  0  0  0  0  0  0  0  0  0  0  0
    7.1915   11.0643    0.0000 F   0  0  0  0  0  0  0  0  0  0  0  0
    9.6121    6.8715    0.0000 C   0  0  0  0  0  0  0  0  0  0  0  0
   10.8204    7.5691    0.0000 N   0  0  0  0  0  0  0  0  0  0  0  0
   12.0286    6.8715    0.0000 C   0  0  0  0  0  0  0  0  0  0  0  0
   13.1442    7.7093    0.0000 N   0  0  0  0  0  0  0  0  0  0  0  0
   14.4275    7.1620    0.0000 C   0  0  0  0  0  0  0  0  0  0  0  0
   14.7402    5.7974    0.0000 N   0  0  0  0  0  0  0  0  0  0  0  0
   16.1346    5.6730    0.0000 N   0  0  0  0  0  0  0  0  0  0  0  0
   16.6838    6.9608    0.0000 C   0  0  0  0  0  0  0  0  0  0  0  0
   15.6288    7.8811    0.0000 C   0  0  0  0  0  0  0  0  0  0  0  0
   18.0437    7.2724    0.0000 C   0  0  0  0  0  0  0  0  0  0  0  0
   18.9935    6.2505    0.0000 C   0  0  0  0  0  0  0  0  0  0  0  0
   18.4539    8.6059    0.0000 C   0  0  0  0  0  0  0  0  0  0  0  0
   19.4036    7.5839    0.0000 C   0  0  0  0  0  0  0  0  0  0  0  0
   13.8231    4.7460    0.0000 C   0  0  0  0  0  0  0  0  0  0  0  0
   12.4493    5.0154    0.0000 C   0  0  0  0  0  0  0  0  0  0  0  0
   11.5290    3.9604    0.0000 C   0  0  0  0  0  0  0  0  0  0  0  0
   11.9826    2.6359    0.0000 C   0  0  0  0  0  0  0  0  0  0  0  0
   13.3564    2.3664    0.0000 C   0  0  0  0  0  0  0  0  0  0  0  0
   14.2767    3.4215    0.0000 C   0  0  0  0  0  0  0  0  0  0  0  0
   12.0286    5.4715    0.0000 O   0  0  0  0  0  0  0  0  0  0  0  0
   11.0656    1.5845    0.0000 C   0  0  0  0  0  0  0  0  0  0  0  0
  1  2  2  0  0  0  0
  2  3  1  0  0  0  0
  3  4  2  0  0  0  0
  4  5  1  0  0  0  0
  5  6  2  0  0  0  0
  6  1  1  0  0  0  0
  1  7  1  0  0  0  0
  7  8  2  0  0  0  0
  8  9  1  0  0  0  0
  9  2  1  0  0  0  0
  9 10  1  0  0  0  0
 10 11  1  0  0  0  0
 11 12  1  0  0  0  0
  5 13  1  0  0  0  0
 13 14  1  0  0  0  0
 14 15  2  0  0  0  0
 15 16  1  0  0  0  0
 16 17  2  0  0  0  0
 17 18  1  0  0  0  0
 18 19  2  0  0  0  0
 19 14  1  0  0  0  0
 17 20  1  0  0  0  0
 15 21  1  0  0  0  0
 21 22  1  0  0  0  0
 22 23  1  0  0  0  0
 23 24  1  0  0  0  0
 24 25  1  0  0  0  0
 25 26  1  0  0  0  0
 26 27  1  0  0  0  0
 27 28  2  0  0  0  0
 28 29  1  0  0  0  0
 29 25  2  0  0  0  0
 28 30  1  0  0  0  0
 30 31  1  0  0  0  0
 30 32  1  0  0  0  0
 30 33  1  0  0  0  0
 26 34  1  0  0  0  0
 34 35  2  0  0  0  0
 35 36  1  0  0  0  0
 36 37  2  0  0  0  0
 37 38  1  0  0  0  0
 38 39  2  0  0  0  0
 39 34  1  0  0  0  0
 23 40  2  0  0  0  0
 37 41  1  0  0  0  0
M  END
>  <Mol_ID> (508)
2946

>  <Formula> (508)
C31H33FN6O3

>  <MolWeight> (508)
556.6305232

>  <Cat> (508)
S7799

>  <Name> (508)
Pexmetinib (ARRY-614)

>  <Synonyms> (508)
N/A

>  <Target> (508)
p38 MAPK

>  <Form> (508)
Free Base

>  <CAS> (508)
945614-12-0

>  <URL> (508)
http://www.selleckchem.com/products/pexmetinib-arry-614.html

$$$$
LY3009120.cdx
csChFnd80/05071909292D

 31 33  0  0  0  0  0  0  0  0999 V2000
    2.4249    2.1000    0.0000 N   0  0  0  0  0  0  0  0  0  0  0  0
    2.4249    0.7000    0.0000 C   0  0  0  0  0  0  0  0  0  0  0  0
    3.6373    0.0000    0.0000 N   0  0  0  0  0  0  0  0  0  0  0  0
    4.8497    0.7000    0.0000 C   0  0  0  0  0  0  0  0  0  0  0  0
    4.8497    2.1000    0.0000 C   0  0  0  0  0  0  0  0  0  0  0  0
    3.6373    2.8000    0.0000 C   0  0  0  0  0  0  0  0  0  0  0  0
    6.0622    0.0000    0.0000 N   0  0  0  0  0  0  0  0  0  0  0  0
    7.2746    0.7000    0.0000 C   0  0  0  0  0  0  0  0  0  0  0  0
    7.2746    2.1000    0.0000 C   0  0  0  0  0  0  0  0  0  0  0  0
    6.0622    2.8000    0.0000 C   0  0  0  0  0  0  0  0  0  0  0  0
    1.2124    0.0000    0.0000 N   0  0  0  0  0  0  0  0  0  0  0  0
    0.0000    0.7000    0.0000 C   0  0  0  0  0  0  0  0  0  0  0  0
    8.4870    0.0000    0.0000 C   0  0  0  0  0  0  0  0  0  0  0  0
    8.4870    2.8000    0.0000 C   0  0  0  0  0  0  0  0  0  0  0  0
    9.6995    2.1000    0.0000 C   0  0  0  0  0  0  0  0  0  0  0  0
   10.9119    2.8000    0.0000 C   0  0  0  0  0  0  0  0  0  0  0  0
   10.9119    4.2000    0.0000 C   0  0  0  0  0  0  0  0  0  0  0  0
    9.6995    4.9000    0.0000 C   0  0  0  0  0  0  0  0  0  0  0  0
    8.4870    4.2000    0.0000 C   0  0  0  0  0  0  0  0  0  0  0  0
    7.2746    4.9000    0.0000 C   0  0  0  0  0  0  0  0  0  0  0  0
   12.1244    4.9000    0.0000 F   0  0  0  0  0  0  0  0  0  0  0  0
   12.1244    2.1000    0.0000 N   0  0  0  0  0  0  0  0  0  0  0  0
   13.3368    2.8000    0.0000 C   0  0  0  0  0  0  0  0  0  0  0  0
   14.5492    2.1000    0.0000 N   0  0  0  0  0  0  0  0  0  0  0  0
   15.7617    2.8000    0.0000 C   0  0  0  0  0  0  0  0  0  0  0  0
   16.9741    2.1000    0.0000 C   0  0  0  0  0  0  0  0  0  0  0  0
   13.3368    4.2000    0.0000 O   0  0  0  0  0  0  0  0  0  0  0  0
   18.1865    2.8000    0.0000 C   0  0  0  0  0  0  0  0  0  0  0  0
   19.3990    2.1000    0.0000 C   0  0  0  0  0  0  0  0  0  0  0  0
   18.1865    4.2000    0.0000 C   0  0  0  0  0  0  0  0  0  0  0  0
   19.3990    3.5000    0.0000 C   0  0  0  0  0  0  0  0  0  0  0  0
  1  2  2  0  0  0  0
  2  3  1  0  0  0  0
  3  4  2  0  0  0  0
  4  5  1  0  0  0  0
  5  6  2  0  0  0  0
  6  1  1  0  0  0  0
  4  7  1  0  0  0  0
  7  8  2  0  0  0  0
  8  9  1  0  0  0  0
  9 10  2  0  0  0  0
 10  5  1  0  0  0  0
  2 11  1  0  0  0  0
 11 12  1  0  0  0  0
  8 13  1  0  0  0  0
  9 14  1  0  0  0  0
 14 15  2  0  0  0  0
 15 16  1  0  0  0  0
 16 17  2  0  0  0  0
 17 18  1  0  0  0  0
 18 19  2  0  0  0  0
 19 14  1  0  0  0  0
 19 20  1  0  0  0  0
 17 21  1  0  0  0  0
 16 22  1  0  0  0  0
 22 23  1  0  0  0  0
 23 24  1  0  0  0  0
 24 25  1  0  0  0  0
 25 26  1  0  0  0  0
 23 27  2  0  0  0  0
 26 28  1  0  0  0  0
 28 29  1  0  0  0  0
 28 30  1  0  0  0  0
 28 31  1  0  0  0  0
M  END
>  <Mol_ID> (509)
2948

>  <Formula> (509)
C23H29FN6O

>  <MolWeight> (509)
424.5143632

>  <Cat> (509)
S7842

>  <Name> (509)
LY3009120

>  <Synonyms> (509)
N/A

>  <Target> (509)
Raf

>  <Form> (509)
Free Base

>  <CAS> (509)
1454682-72-4

>  <URL> (509)
http://www.selleckchem.com/products/ly3009120.html

$$$$
HTH-01-015.cdx
csChFnd80/05071909292D

 35 40  0  0  0  0  0  0  0  0999 V2000
    4.9506    9.1986    0.0000 N   0  0  0  0  0  0  0  0  0  0  0  0
    4.9506    7.7986    0.0000 C   0  0  0  0  0  0  0  0  0  0  0  0
    6.1630    7.0986    0.0000 N   0  0  0  0  0  0  0  0  0  0  0  0
    7.3754    7.7986    0.0000 C   0  0  0  0  0  0  0  0  0  0  0  0
    7.3754    9.1986    0.0000 C   0  0  0  0  0  0  0  0  0  0  0  0
    6.1630    9.8986    0.0000 C   0  0  0  0  0  0  0  0  0  0  0  0
    8.4700    6.9257    0.0000 N   0  0  0  0  0  0  0  0  0  0  0  0
    9.8349    7.2372    0.0000 C   0  0  0  0  0  0  0  0  0  0  0  0
   10.4423    8.4986    0.0000 C   0  0  0  0  0  0  0  0  0  0  0  0
    9.8349    9.7599    0.0000 C   0  0  0  0  0  0  0  0  0  0  0  0
    8.4700   10.0715    0.0000 N   0  0  0  0  0  0  0  0  0  0  0  0
   10.6235    6.0805    0.0000 C   0  0  0  0  0  0  0  0  0  0  0  0
   12.0196    6.1851    0.0000 C   0  0  0  0  0  0  0  0  0  0  0  0
   12.6271    7.4465    0.0000 C   0  0  0  0  0  0  0  0  0  0  0  0
   11.8384    8.6032    0.0000 C   0  0  0  0  0  0  0  0  0  0  0  0
   12.8083    5.0284    0.0000 C   0  0  0  0  0  0  0  0  0  0  0  0
   14.2044    5.1330    0.0000 C   0  0  0  0  0  0  0  0  0  0  0  0
   14.8118    6.3944    0.0000 C   0  0  0  0  0  0  0  0  0  0  0  0
   14.0232    7.5511    0.0000 C   0  0  0  0  0  0  0  0  0  0  0  0
    8.1585   11.4364    0.0000 C   0  0  0  0  0  0  0  0  0  0  0  0
   10.7078   10.8545    0.0000 O   0  0  0  0  0  0  0  0  0  0  0  0
    8.1585    5.5608    0.0000 C   0  0  0  0  0  0  0  0  0  0  0  0
    3.7381    7.0986    0.0000 N   0  0  0  0  0  0  0  0  0  0  0  0
    6.1630   11.2986    0.0000 C   0  0  0  0  0  0  0  0  0  0  0  0
    3.7381    5.6986    0.0000 C   0  0  0  0  0  0  0  0  0  0  0  0
    2.6055    4.8757    0.0000 C   0  0  0  0  0  0  0  0  0  0  0  0
    3.0381    3.5442    0.0000 N   0  0  0  0  0  0  0  0  0  0  0  0
    4.4381    3.5442    0.0000 N   0  0  0  0  0  0  0  0  0  0  0  0
    4.8708    4.8757    0.0000 C   0  0  0  0  0  0  0  0  0  0  0  0
    2.2152    2.4116    0.0000 C   0  0  0  0  0  0  0  0  0  0  0  0
    0.8229    2.5579    0.0000 C   0  0  0  0  0  0  0  0  0  0  0  0
    0.0000    1.4253    0.0000 C   0  0  0  0  0  0  0  0  0  0  0  0
    0.5694    0.1463    0.0000 N   0  0  0  0  0  0  0  0  0  0  0  0
    1.9618    0.0000    0.0000 C   0  0  0  0  0  0  0  0  0  0  0  0
    2.7847    1.1326    0.0000 C   0  0  0  0  0  0  0  0  0  0  0  0
  1  2  2  0  0  0  0
  2  3  1  0  0  0  0
  3  4  2  0  0  0  0
  4  5  1  0  0  0  0
  5  6  2  0  0  0  0
  6  1  1  0  0  0  0
  4  7  1  0  0  0  0
  7  8  1  0  0  0  0
  8  9  2  0  0  0  0
  9 10  1  0  0  0  0
 10 11  1  0  0  0  0
 11  5  1  0  0  0  0
  8 12  1  0  0  0  0
 12 13  2  0  0  0  0
 13 14  1  0  0  0  0
 14 15  2  0  0  0  0
 15  9  1  0  0  0  0
 13 16  1  0  0  0  0
 16 17  2  0  0  0  0
 17 18  1  0  0  0  0
 18 19  2  0  0  0  0
 19 14  1  0  0  0  0
 11 20  1  0  0  0  0
 10 21  2  0  0  0  0
  7 22  1  0  0  0  0
  2 23  1  0  0  0  0
  6 24  1  0  0  0  0
 23 25  1  0  0  0  0
 25 26  2  0  0  0  0
 26 27  1  0  0  0  0
 27 28  1  0  0  0  0
 28 29  2  0  0  0  0
 29 25  1  0  0  0  0
 27 30  1  0  0  0  0
 30 31  1  0  0  0  0
 31 32  1  0  0  0  0
 32 33  1  0  0  0  0
 33 34  1  0  0  0  0
 34 35  1  0  0  0  0
 35 30  1  0  0  0  0
M  END
>  <Mol_ID> (510)
2951

>  <Formula> (510)
C26H28N8O

>  <MolWeight> (510)
468.55352

>  <Cat> (510)
S7318

>  <Name> (510)
HTH-01-015

>  <Synonyms> (510)
N/A

>  <Target> (510)
AMPK

>  <Form> (510)
Free Base

>  <CAS> (510)
1613724-42-7

>  <URL> (510)
http://www.selleckchem.com/products/hth-01-015.html

$$$$
PLX3397.cdx
csChFnd80/05071909292D

 29 32  0  0  0  0  0  0  0  0999 V2000
    1.2124    2.1000    0.0000 C   0  0  0  0  0  0  0  0  0  0  0  0
    1.2124    0.7000    0.0000 C   0  0  0  0  0  0  0  0  0  0  0  0
    2.4249    0.0000    0.0000 N   0  0  0  0  0  0  0  0  0  0  0  0
    3.6373    0.7000    0.0000 C   0  0  0  0  0  0  0  0  0  0  0  0
    3.6373    2.1000    0.0000 C   0  0  0  0  0  0  0  0  0  0  0  0
    2.4249    2.8000    0.0000 C   0  0  0  0  0  0  0  0  0  0  0  0
    4.9688    0.2674    0.0000 N   0  0  0  0  0  0  0  0  0  0  0  0
    5.7917    1.4000    0.0000 C   0  0  0  0  0  0  0  0  0  0  0  0
    4.9688    2.5326    0.0000 C   0  0  0  0  0  0  0  0  0  0  0  0
    0.0000    2.8000    0.0000 Cl  0  0  0  0  0  0  0  0  0  0  0  0
    5.4014    3.8641    0.0000 C   0  0  0  0  0  0  0  0  0  0  0  0
    6.7708    4.1552    0.0000 C   0  0  0  0  0  0  0  0  0  0  0  0
    7.7076    3.1148    0.0000 C   0  0  0  0  0  0  0  0  0  0  0  0
    9.0770    3.4059    0.0000 N   0  0  0  0  0  0  0  0  0  0  0  0
    9.5096    4.7373    0.0000 C   0  0  0  0  0  0  0  0  0  0  0  0
    8.5728    5.7777    0.0000 C   0  0  0  0  0  0  0  0  0  0  0  0
    7.2034    5.4867    0.0000 C   0  0  0  0  0  0  0  0  0  0  0  0
   10.8790    5.0284    0.0000 N   0  0  0  0  0  0  0  0  0  0  0  0
   11.8158    3.9880    0.0000 C   0  0  0  0  0  0  0  0  0  0  0  0
   13.1852    4.2791    0.0000 C   0  0  0  0  0  0  0  0  0  0  0  0
   14.1220    3.2387    0.0000 C   0  0  0  0  0  0  0  0  0  0  0  0
   15.4914    3.5298    0.0000 N   0  0  0  0  0  0  0  0  0  0  0  0
   15.9240    4.8612    0.0000 C   0  0  0  0  0  0  0  0  0  0  0  0
   14.9873    5.9016    0.0000 C   0  0  0  0  0  0  0  0  0  0  0  0
   13.6179    5.6106    0.0000 C   0  0  0  0  0  0  0  0  0  0  0  0
   17.2887    5.1513    0.0000 C   0  0  0  0  0  0  0  0  0  0  0  0
   18.2222    4.1145    0.0000 F   0  0  0  0  0  0  0  0  0  0  0  0
   17.7198    6.4782    0.0000 F   0  0  0  0  0  0  0  0  0  0  0  0
   18.6533    5.4414    0.0000 F   0  0  0  0  0  0  0  0  0  0  0  0
  1  2  2  0  0  0  0
  2  3  1  0  0  0  0
  3  4  2  0  0  0  0
  4  5  1  0  0  0  0
  5  6  2  0  0  0  0
  6  1  1  0  0  0  0
  4  7  1  0  0  0  0
  7  8  1  0  0  0  0
  8  9  2  0  0  0  0
  9  5  1  0  0  0  0
  1 10  1  0  0  0  0
  9 11  1  0  0  0  0
 11 12  1  0  0  0  0
 12 13  2  0  0  0  0
 13 14  1  0  0  0  0
 14 15  2  0  0  0  0
 15 16  1  0  0  0  0
 16 17  2  0  0  0  0
 17 12  1  0  0  0  0
 15 18  1  0  0  0  0
 18 19  1  0  0  0  0
 19 20  1  0  0  0  0
 20 21  2  0  0  0  0
 21 22  1  0  0  0  0
 22 23  2  0  0  0  0
 23 24  1  0  0  0  0
 24 25  2  0  0  0  0
 25 20  1  0  0  0  0
 23 26  1  0  0  0  0
 26 27  1  0  0  0  0
 26 28  1  0  0  0  0
 26 29  1  0  0  0  0
M  END
>  <Mol_ID> (511)
2952

>  <Formula> (511)
C20H15ClF3N5

>  <MolWeight> (511)
417.8148096

>  <Cat> (511)
S7818

>  <Name> (511)
Pexidartinib (PLX3397)

>  <Synonyms> (511)
N/A

>  <Target> (511)
CSF-1R

>  <Form> (511)
Free Base

>  <CAS> (511)
1029044-16-3

>  <URL> (511)
http://www.selleckchem.com/products/pexidartinib-plx3397.html

$$$$
GDC-0973(XL518,RG7420.cdx
csChFnd80/05071909292D

 30 33  0  0  0  0  0  0  0  0999 V2000
    5.9146    3.5000    0.0000 C   0  0  0  0  0  0  0  0  0  0  0  0
    5.9146    2.1000    0.0000 C   0  0  0  0  0  0  0  0  0  0  0  0
    7.1271    1.4000    0.0000 C   0  0  0  0  0  0  0  0  0  0  0  0
    8.3395    2.1000    0.0000 C   0  0  0  0  0  0  0  0  0  0  0  0
    8.3395    3.5000    0.0000 C   0  0  0  0  0  0  0  0  0  0  0  0
    7.1271    4.2000    0.0000 C   0  0  0  0  0  0  0  0  0  0  0  0
    9.5520    4.2000    0.0000 N   0  0  0  0  0  0  0  0  0  0  0  0
   10.7644    3.5000    0.0000 C   0  0  0  0  0  0  0  0  0  0  0  0
    7.1271    5.6000    0.0000 C   0  0  0  0  0  0  0  0  0  0  0  0
    5.9146    6.3000    0.0000 N   0  0  0  0  0  0  0  0  0  0  0  0
    8.3395    6.3000    0.0000 O   0  0  0  0  0  0  0  0  0  0  0  0
    7.1271    0.0000    0.0000 F   0  0  0  0  0  0  0  0  0  0  0  0
    9.5520    1.4000    0.0000 F   0  0  0  0  0  0  0  0  0  0  0  0
   10.7644    2.1000    0.0000 C   0  0  0  0  0  0  0  0  0  0  0  0
   11.9768    1.4000    0.0000 C   0  0  0  0  0  0  0  0  0  0  0  0
   13.1893    2.1000    0.0000 C   0  0  0  0  0  0  0  0  0  0  0  0
   13.1893    3.5000    0.0000 C   0  0  0  0  0  0  0  0  0  0  0  0
   11.9768    4.2000    0.0000 C   0  0  0  0  0  0  0  0  0  0  0  0
   11.9768    5.6000    0.0000 F   0  0  0  0  0  0  0  0  0  0  0  0
   14.4017    1.4000    0.0000 I   0  0  0  0  0  0  0  0  0  0  0  0
    5.5523    7.6523    0.0000 C   0  0  0  0  0  0  0  0  0  0  0  0
    4.2000    7.2900    0.0000 C   0  0  0  0  0  0  0  0  0  0  0  0
    4.5623    5.9377    0.0000 C   0  0  0  0  0  0  0  0  0  0  0  0
    2.8000    7.2900    0.0000 C   0  0  2  0  0  0  0  0  0  0  0  0
    2.1000    8.5024    0.0000 C   0  0  0  0  0  0  0  0  0  0  0  0
    0.7000    8.5024    0.0000 C   0  0  0  0  0  0  0  0  0  0  0  0
    0.0000    7.2900    0.0000 C   0  0  0  0  0  0  0  0  0  0  0  0
    0.7000    6.0775    0.0000 C   0  0  0  0  0  0  0  0  0  0  0  0
    2.1000    6.0775    0.0000 N   0  0  0  0  0  0  0  0  0  0  0  0
    3.8377    8.6422    0.0000 O   0  0  0  0  0  0  0  0  0  0  0  0
  1  2  2  0  0  0  0
  2  3  1  0  0  0  0
  3  4  2  0  0  0  0
  4  5  1  0  0  0  0
  5  6  2  0  0  0  0
  6  1  1  0  0  0  0
  5  7  1  0  0  0  0
  7  8  1  0  0  0  0
  6  9  1  0  0  0  0
  9 10  1  0  0  0  0
  9 11  2  0  0  0  0
  3 12  1  0  0  0  0
  4 13  1  0  0  0  0
  8 14  2  0  0  0  0
 14 15  1  0  0  0  0
 15 16  2  0  0  0  0
 16 17  1  0  0  0  0
 17 18  2  0  0  0  0
 18  8  1  0  0  0  0
 18 19  1  0  0  0  0
 16 20  1  0  0  0  0
 10 21  1  0  0  0  0
 21 22  1  0  0  0  0
 22 23  1  0  0  0  0
 23 10  1  0  0  0  0
 22 24  1  0  0  0  0
 24 25  1  0  0  0  0
 25 26  1  0  0  0  0
 26 27  1  0  0  0  0
 27 28  1  0  0  0  0
 28 29  1  0  0  0  0
 24 29  1  1  0  0  0
 22 30  1  0  0  0  0
M  END
>  <Mol_ID> (512)
2953

>  <Formula> (512)
C21H21F3IN3O2

>  <MolWeight> (512)
531.3100196

>  <Cat> (512)
S8041

>  <Name> (512)
Cobimetinib (GDC-0973, RG7420)

>  <Synonyms> (512)
XL518

>  <Target> (512)
MEK

>  <Form> (512)
Free Base

>  <CAS> (512)
934660-93-2

>  <URL> (512)
http://www.selleckchem.com/products/cobimetinib-gdc-0973-rg7420.html

$$$$
BVD-523.cdx
csChFnd80/05071909292D

 29 31  0  0  0  0  0  0  0  0999 V2000
    4.9944    2.1000    0.0000 C   0  0  0  0  0  0  0  0  0  0  0  0
    4.9944    0.7000    0.0000 C   0  0  0  0  0  0  0  0  0  0  0  0
    6.2068    0.0000    0.0000 N   0  0  0  0  0  0  0  0  0  0  0  0
    7.4193    0.7000    0.0000 C   0  0  0  0  0  0  0  0  0  0  0  0
    7.4193    2.1000    0.0000 C   0  0  0  0  0  0  0  0  0  0  0  0
    6.2068    2.8000    0.0000 C   0  0  0  0  0  0  0  0  0  0  0  0
    6.2068    4.2000    0.0000 C   0  0  0  0  0  0  0  0  0  0  0  0
    7.3394    5.0229    0.0000 C   0  0  0  0  0  0  0  0  0  0  0  0
    6.9068    6.3544    0.0000 N   0  0  0  0  0  0  0  0  0  0  0  0
    5.5068    6.3544    0.0000 C   0  0  0  0  0  0  0  0  0  0  0  0
    5.0742    5.0229    0.0000 C   0  0  0  0  0  0  0  0  0  0  0  0
    3.7820    2.8000    0.0000 Cl  0  0  0  0  0  0  0  0  0  0  0  0
    8.6317    0.0000    0.0000 N   0  0  0  0  0  0  0  0  0  0  0  0
    9.8441    0.7000    0.0000 C   0  0  0  0  0  0  0  0  0  0  0  0
   11.0566    0.0000    0.0000 C   0  0  0  0  0  0  0  0  0  0  0  0
    9.8441    2.1000    0.0000 C   0  0  0  0  0  0  0  0  0  0  0  0
    4.6839    7.4870    0.0000 C   0  0  0  0  0  0  0  0  0  0  0  0
    5.2534    8.7660    0.0000 N   0  0  0  0  0  0  0  0  0  0  0  0
    3.2916    7.3407    0.0000 O   0  0  0  0  0  0  0  0  0  0  0  0
    4.4305    9.8986    0.0000 C   0  0  2  0  0  0  0  0  0  0  0  0
    4.9999   11.1776    0.0000 C   0  0  0  0  0  0  0  0  0  0  0  0
    3.0381    9.7522    0.0000 C   0  0  0  0  0  0  0  0  0  0  0  0
    6.3922   11.3239    0.0000 O   0  0  0  0  0  0  0  0  0  0  0  0
    2.2152   10.8849    0.0000 C   0  0  0  0  0  0  0  0  0  0  0  0
    0.8229   10.7385    0.0000 C   0  0  0  0  0  0  0  0  0  0  0  0
    0.2535    9.4596    0.0000 C   0  0  0  0  0  0  0  0  0  0  0  0
    1.0764    8.3269    0.0000 C   0  0  0  0  0  0  0  0  0  0  0  0
    2.4687    8.4733    0.0000 C   0  0  0  0  0  0  0  0  0  0  0  0
    0.0000   11.8712    0.0000 Cl  0  0  0  0  0  0  0  0  0  0  0  0
  1  2  2  0  0  0  0
  2  3  1  0  0  0  0
  3  4  2  0  0  0  0
  4  5  1  0  0  0  0
  5  6  2  0  0  0  0
  6  1  1  0  0  0  0
  6  7  1  0  0  0  0
  7  8  2  0  0  0  0
  8  9  1  0  0  0  0
  9 10  1  0  0  0  0
 10 11  2  0  0  0  0
 11  7  1  0  0  0  0
  1 12  1  0  0  0  0
  4 13  1  0  0  0  0
 13 14  1  0  0  0  0
 14 15  1  0  0  0  0
 14 16  1  0  0  0  0
 10 17  1  0  0  0  0
 17 18  1  0  0  0  0
 17 19  2  0  0  0  0
 18 20  1  0  0  0  0
 20 21  1  0  0  0  0
 20 22  1  1  0  0  0
 21 23  1  0  0  0  0
 22 24  2  0  0  0  0
 24 25  1  0  0  0  0
 25 26  2  0  0  0  0
 26 27  1  0  0  0  0
 27 28  2  0  0  0  0
 28 22  1  0  0  0  0
 25 29  1  0  0  0  0
M  END
>  <Mol_ID> (513)
2954

>  <Formula> (513)
C21H22Cl2N4O2

>  <MolWeight> (513)
433.33098

>  <Cat> (513)
S7854

>  <Name> (513)
Ulixertinib (BVD-523, VRT752271)

>  <Synonyms> (513)
N/A

>  <Target> (513)
ERK

>  <Form> (513)
Free Base

>  <CAS> (513)
869886-67-9

>  <URL> (513)
http://www.selleckchem.com/products/ulixertinib-bvd-523-vrt752271.html

$$$$
Dorsomorphin.cdx
csChFnd80/05071909292D

 30 34  0  0  0  0  0  0  0  0999 V2000
    7.2746    2.1000    0.0000 C   0  0  0  0  0  0  0  0  0  0  0  0
    7.2746    0.7000    0.0000 C   0  0  0  0  0  0  0  0  0  0  0  0
    8.4870    0.0000    0.0000 C   0  0  0  0  0  0  0  0  0  0  0  0
    9.6995    0.7000    0.0000 C   0  0  0  0  0  0  0  0  0  0  0  0
    9.6995    2.1000    0.0000 C   0  0  0  0  0  0  0  0  0  0  0  0
    8.4870    2.8000    0.0000 C   0  0  0  0  0  0  0  0  0  0  0  0
    6.0622    0.0000    0.0000 O   0  0  0  0  0  0  0  0  0  0  0  0
    4.8497    0.7000    0.0000 C   0  0  0  0  0  0  0  0  0  0  0  0
    3.6373    0.0000    0.0000 C   0  0  0  0  0  0  0  0  0  0  0  0
    2.4249    0.7000    0.0000 N   0  0  0  0  0  0  0  0  0  0  0  0
    2.4249    2.1000    0.0000 C   0  0  0  0  0  0  0  0  0  0  0  0
    1.2124    2.8000    0.0000 C   0  0  0  0  0  0  0  0  0  0  0  0
    0.0000    2.1000    0.0000 C   0  0  0  0  0  0  0  0  0  0  0  0
    0.0000    0.7000    0.0000 C   0  0  0  0  0  0  0  0  0  0  0  0
    1.2124    0.0000    0.0000 C   0  0  0  0  0  0  0  0  0  0  0  0
   10.9119    2.8000    0.0000 C   0  0  0  0  0  0  0  0  0  0  0  0
   12.1244    2.1000    0.0000 C   0  0  0  0  0  0  0  0  0  0  0  0
   13.3368    2.8000    0.0000 N   0  0  0  0  0  0  0  0  0  0  0  0
   13.3368    4.2000    0.0000 C   0  0  0  0  0  0  0  0  0  0  0  0
   12.1244    4.9000    0.0000 N   0  0  0  0  0  0  0  0  0  0  0  0
   10.9119    4.2000    0.0000 C   0  0  0  0  0  0  0  0  0  0  0  0
   14.6683    2.3674    0.0000 N   0  0  0  0  0  0  0  0  0  0  0  0
   15.4912    3.5000    0.0000 C   0  0  0  0  0  0  0  0  0  0  0  0
   14.6683    4.6326    0.0000 C   0  0  0  0  0  0  0  0  0  0  0  0
   15.0994    5.9595    0.0000 C   0  0  0  0  0  0  0  0  0  0  0  0
   16.4688    6.2506    0.0000 C   0  0  0  0  0  0  0  0  0  0  0  0
   16.9014    7.5820    0.0000 C   0  0  0  0  0  0  0  0  0  0  0  0
   15.9646    8.6224    0.0000 N   0  0  0  0  0  0  0  0  0  0  0  0
   14.5952    8.3314    0.0000 C   0  0  0  0  0  0  0  0  0  0  0  0
   14.1626    6.9999    0.0000 C   0  0  0  0  0  0  0  0  0  0  0  0
  1  2  2  0  0  0  0
  2  3  1  0  0  0  0
  3  4  2  0  0  0  0
  4  5  1  0  0  0  0
  5  6  2  0  0  0  0
  6  1  1  0  0  0  0
  2  7  1  0  0  0  0
  7  8  1  0  0  0  0
  8  9  1  0  0  0  0
  9 10  1  0  0  0  0
 10 11  1  0  0  0  0
 11 12  1  0  0  0  0
 12 13  1  0  0  0  0
 13 14  1  0  0  0  0
 14 15  1  0  0  0  0
 15 10  1  0  0  0  0
  5 16  1  0  0  0  0
 16 17  2  0  0  0  0
 17 18  1  0  0  0  0
 18 19  1  0  0  0  0
 19 20  1  0  0  0  0
 20 21  2  0  0  0  0
 21 16  1  0  0  0  0
 18 22  1  0  0  0  0
 22 23  2  0  0  0  0
 23 24  1  0  0  0  0
 24 19  2  0  0  0  0
 24 25  1  0  0  0  0
 25 26  2  0  0  0  0
 26 27  1  0  0  0  0
 27 28  2  0  0  0  0
 28 29  1  0  0  0  0
 29 30  2  0  0  0  0
 30 25  1  0  0  0  0
M  END
>  <Mol_ID> (514)
2957

>  <Formula> (514)
C24H25N5O

>  <MolWeight> (514)
399.4882

>  <Cat> (514)
S7840

>  <Name> (514)
Dorsomorphin (Compound C)

>  <Synonyms> (514)
Compound C, BML-275

>  <Target> (514)
AMPK

>  <Form> (514)
Free Base

>  <CAS> (514)
866405-64-3

>  <URL> (514)
http://www.selleckchem.com/products/dorsomorphin.html

$$$$
SC79.cdx
csChFnd80/05071909292D

 25 26  0  0  0  0  0  0  0  0999 V2000
    1.2124    5.6000    0.0000 C   0  0  0  0  0  0  0  0  0  0  0  0
    1.2124    4.2000    0.0000 C   0  0  0  0  0  0  0  0  0  0  0  0
    2.4249    3.5000    0.0000 C   0  0  0  0  0  0  0  0  0  0  0  0
    3.6373    4.2000    0.0000 C   0  0  0  0  0  0  0  0  0  0  0  0
    3.6373    5.6000    0.0000 C   0  0  0  0  0  0  0  0  0  0  0  0
    2.4249    6.3000    0.0000 C   0  0  0  0  0  0  0  0  0  0  0  0
    0.0000    3.5000    0.0000 Cl  0  0  0  0  0  0  0  0  0  0  0  0
    4.8497    3.5000    0.0000 C   0  0  3  0  0  0  0  0  0  0  0  0
    6.0622    4.2000    0.0000 C   0  0  0  0  0  0  0  0  0  0  0  0
    6.0622    5.6000    0.0000 C   0  0  0  0  0  0  0  0  0  0  0  0
    4.8497    6.3000    0.0000 O   0  0  0  0  0  0  0  0  0  0  0  0
    7.2746    6.3000    0.0000 N   0  0  0  0  0  0  0  0  0  0  0  0
    7.2746    3.5000    0.0000 C   0  0  0  0  0  0  0  0  0  0  0  0
    8.4870    4.2000    0.0000 O   0  0  0  0  0  0  0  0  0  0  0  0
    7.2746    2.1000    0.0000 O   0  0  0  0  0  0  0  0  0  0  0  0
    8.4870    1.4000    0.0000 C   0  0  0  0  0  0  0  0  0  0  0  0
    4.8497    2.1000    0.0000 C   0  0  3  0  0  0  0  0  0  0  0  0
    6.0622    1.4000    0.0000 C   0  0  0  0  0  0  0  0  0  0  0  0
    3.6373    1.4000    0.0000 C   0  0  0  0  0  0  0  0  0  0  0  0
    2.4249    2.1000    0.0000 O   0  0  0  0  0  0  0  0  0  0  0  0
    3.6373    0.0000    0.0000 O   0  0  0  0  0  0  0  0  0  0  0  0
    1.2124    1.4000    0.0000 C   0  0  0  0  0  0  0  0  0  0  0  0
    0.0000    2.1000    0.0000 C   0  0  0  0  0  0  0  0  0  0  0  0
    9.6953    2.0976    0.0000 C   0  0  0  0  0  0  0  0  0  0  0  0
    7.2726    0.7049    0.0000 N   0  0  0  0  0  0  0  0  0  0  0  0
  1  2  2  0  0  0  0
  2  3  1  0  0  0  0
  3  4  2  0  0  0  0
  4  5  1  0  0  0  0
  5  6  2  0  0  0  0
  6  1  1  0  0  0  0
  2  7  1  0  0  0  0
  4  8  1  0  0  0  0
  8  9  1  0  0  0  0
  9 10  2  0  0  0  0
 10 11  1  0  0  0  0
 11  5  1  0  0  0  0
 10 12  1  0  0  0  0
  9 13  1  0  0  0  0
 13 14  2  0  0  0  0
 13 15  1  0  0  0  0
 15 16  1  0  0  0  0
  8 17  1  0  0  0  0
 17 18  1  0  0  0  0
 17 19  1  0  0  0  0
 19 20  1  0  0  0  0
 19 21  2  0  0  0  0
 20 22  1  0  0  0  0
 22 23  1  0  0  0  0
 16 24  1  0  0  0  0
 18 25  3  0  0  0  0
M  END
>  <Mol_ID> (515)
2962

>  <Formula> (515)
C17H17ClN2O5

>  <MolWeight> (515)
364.78028

>  <Cat> (515)
S7863

>  <Name> (515)
SC79

>  <Synonyms> (515)
N/A

>  <Target> (515)
Akt

>  <Form> (515)
Free Base

>  <CAS> (515)
305834-79-1

>  <URL> (515)
http://www.selleckchem.com/products/sc79.html

$$$$
BI-847325.cdx
csChFnd80/05071909292D

 35 38  0  0  0  0  0  0  0  0999 V2000
    7.2436    4.8830    0.0000 C   0  0  0  0  0  0  0  0  0  0  0  0
    7.2436    3.4830    0.0000 C   0  0  0  0  0  0  0  0  0  0  0  0
    8.4561    2.7830    0.0000 C   0  0  0  0  0  0  0  0  0  0  0  0
    9.6685    3.4830    0.0000 C   0  0  0  0  0  0  0  0  0  0  0  0
    9.6685    4.8830    0.0000 C   0  0  0  0  0  0  0  0  0  0  0  0
    8.4561    5.5830    0.0000 C   0  0  0  0  0  0  0  0  0  0  0  0
   11.0000    3.0504    0.0000 N   0  0  0  0  0  0  0  0  0  0  0  0
   11.8229    4.1830    0.0000 C   0  0  0  0  0  0  0  0  0  0  0  0
   11.0000    5.3156    0.0000 C   0  0  0  0  0  0  0  0  0  0  0  0
   11.4311    6.6425    0.0000 C   0  0  0  0  0  0  0  0  0  0  0  0
   10.4976    7.6793    0.0000 C   0  0  0  0  0  0  0  0  0  0  0  0
   12.7958    6.9325    0.0000 N   0  0  0  0  0  0  0  0  0  0  0  0
   10.9302    9.0107    0.0000 C   0  0  0  0  0  0  0  0  0  0  0  0
    9.9934   10.0511    0.0000 C   0  0  0  0  0  0  0  0  0  0  0  0
    8.6240    9.7601    0.0000 C   0  0  0  0  0  0  0  0  0  0  0  0
    8.1914    8.4286    0.0000 C   0  0  0  0  0  0  0  0  0  0  0  0
    9.1282    7.3882    0.0000 C   0  0  0  0  0  0  0  0  0  0  0  0
   13.2269    8.2594    0.0000 C   0  0  0  0  0  0  0  0  0  0  0  0
    6.0354    2.7854    0.0000 C   0  0  0  0  0  0  0  0  0  0  0  0
    4.8299    2.0903    0.0000 C   0  0  0  0  0  0  0  0  0  0  0  0
    3.6243    1.3951    0.0000 C   0  0  0  0  0  0  0  0  0  0  0  0
    2.4165    2.0934    0.0000 N   0  0  0  0  0  0  0  0  0  0  0  0
    1.2078    1.3965    0.0000 C   0  0  0  0  0  0  0  0  0  0  0  0
    0.0000    2.0947    0.0000 C   0  0  0  0  0  0  0  0  0  0  0  0
    3.6235    0.0000    0.0000 O   0  0  0  0  0  0  0  0  0  0  0  0
   13.2180    4.1830    0.0000 O   0  0  0  0  0  0  0  0  0  0  0  0
   14.5963    8.5505    0.0000 C   0  0  0  0  0  0  0  0  0  0  0  0
   15.0289    9.8820    0.0000 C   0  0  0  0  0  0  0  0  0  0  0  0
   14.0921   10.9224    0.0000 C   0  0  0  0  0  0  0  0  0  0  0  0
   12.7227   10.6313    0.0000 C   0  0  0  0  0  0  0  0  0  0  0  0
   12.2901    9.2998    0.0000 C   0  0  0  0  0  0  0  0  0  0  0  0
   14.5233   12.2492    0.0000 C   0  0  0  0  0  0  0  0  0  0  0  0
   15.8879   12.5393    0.0000 N   0  0  0  0  0  0  0  0  0  0  0  0
   16.8214   11.5025    0.0000 C   0  0  0  0  0  0  0  0  0  0  0  0
   16.3190   13.8661    0.0000 C   0  0  0  0  0  0  0  0  0  0  0  0
  1  2  2  0  0  0  0
  2  3  1  0  0  0  0
  3  4  2  0  0  0  0
  4  5  1  0  0  0  0
  5  6  2  0  0  0  0
  6  1  1  0  0  0  0
  4  7  1  0  0  0  0
  7  8  1  0  0  0  0
  8  9  1  0  0  0  0
  9  5  1  0  0  0  0
  9 10  2  0  0  0  0
 10 11  1  0  0  0  0
 10 12  1  0  0  0  0
 11 13  2  0  0  0  0
 13 14  1  0  0  0  0
 14 15  2  0  0  0  0
 15 16  1  0  0  0  0
 16 17  2  0  0  0  0
 17 11  1  0  0  0  0
 12 18  1  0  0  0  0
  2 19  1  0  0  0  0
 19 20  3  0  0  0  0
 20 21  1  0  0  0  0
 21 22  1  0  0  0  0
 22 23  1  0  0  0  0
 23 24  1  0  0  0  0
 21 25  2  0  0  0  0
  8 26  2  0  0  0  0
 18 27  2  0  0  0  0
 27 28  1  0  0  0  0
 28 29  2  0  0  0  0
 29 30  1  0  0  0  0
 30 31  2  0  0  0  0
 31 18  1  0  0  0  0
 29 32  1  0  0  0  0
 32 33  1  0  0  0  0
 33 34  1  0  0  0  0
 33 35  1  0  0  0  0
M  END
>  <Mol_ID> (516)
2963

>  <Formula> (516)
C29H28N4O2

>  <MolWeight> (516)
464.55822

>  <Cat> (516)
S7843

>  <Name> (516)
BI-847325

>  <Synonyms> (516)
N/A

>  <Target> (516)
MEK

>  <Form> (516)
Free Base

>  <CAS> (516)
1207293-36-4

>  <URL> (516)
http://www.selleckchem.com/products/bi-847325.html

$$$$
AZ5104.cdx
csChFnd80/05071909292D

 36 39  0  0  0  0  0  0  0  0999 V2000
    2.2264    4.1927    0.0000 C   0  0  0  0  0  0  0  0  0  0  0  0
    2.2264    2.7927    0.0000 C   0  0  0  0  0  0  0  0  0  0  0  0
    3.4388    2.0927    0.0000 N   0  0  0  0  0  0  0  0  0  0  0  0
    4.6513    2.7927    0.0000 C   0  0  0  0  0  0  0  0  0  0  0  0
    4.6513    4.1927    0.0000 N   0  0  0  0  0  0  0  0  0  0  0  0
    3.4388    4.8927    0.0000 C   0  0  0  0  0  0  0  0  0  0  0  0
    3.4388    6.2879    0.0000 C   0  0  0  0  0  0  0  0  0  0  0  0
    4.5714    7.1108    0.0000 C   0  0  0  0  0  0  0  0  0  0  0  0
    4.1388    8.4422    0.0000 N   0  0  0  0  0  0  0  0  0  0  0  0
    2.7388    8.4422    0.0000 C   0  0  0  0  0  0  0  0  0  0  0  0
    2.3062    7.1108    0.0000 C   0  0  0  0  0  0  0  0  0  0  0  0
    1.8020    9.4826    0.0000 C   0  0  0  0  0  0  0  0  0  0  0  0
    0.4326    9.1916    0.0000 C   0  0  0  0  0  0  0  0  0  0  0  0
    0.0000    7.8601    0.0000 C   0  0  0  0  0  0  0  0  0  0  0  0
    0.9368    6.8197    0.0000 C   0  0  0  0  0  0  0  0  0  0  0  0
    5.8595    2.0951    0.0000 N   0  0  0  0  0  0  0  0  0  0  0  0
    7.0677    2.7927    0.0000 C   0  0  0  0  0  0  0  0  0  0  0  0
    8.2801    2.0927    0.0000 C   0  0  0  0  0  0  0  0  0  0  0  0
    9.4926    2.7927    0.0000 C   0  0  0  0  0  0  0  0  0  0  0  0
    9.4926    4.1927    0.0000 C   0  0  0  0  0  0  0  0  0  0  0  0
    8.2801    4.8927    0.0000 C   0  0  0  0  0  0  0  0  0  0  0  0
    7.0677    4.1927    0.0000 C   0  0  0  0  0  0  0  0  0  0  0  0
    8.2801    6.2879    0.0000 N   0  0  0  0  0  0  0  0  0  0  0  0
    7.0719    6.9854    0.0000 C   0  0  0  0  0  0  0  0  0  0  0  0
    7.0719    8.3806    0.0000 C   0  0  0  0  0  0  0  0  0  0  0  0
    5.8637    6.2879    0.0000 O   0  0  0  0  0  0  0  0  0  0  0  0
    8.2801    9.0781    0.0000 C   0  0  0  0  0  0  0  0  0  0  0  0
   10.7008    4.8903    0.0000 N   0  0  0  0  0  0  0  0  0  0  0  0
   11.9090    4.1927    0.0000 C   0  0  0  0  0  0  0  0  0  0  0  0
   10.7008    6.2854    0.0000 C   0  0  0  0  0  0  0  0  0  0  0  0
   11.9090    2.7976    0.0000 C   0  0  0  0  0  0  0  0  0  0  0  0
   13.1173    2.1000    0.0000 N   0  0  0  0  0  0  0  0  0  0  0  0
   13.1173    0.7049    0.0000 C   0  0  0  0  0  0  0  0  0  0  0  0
   14.3255    2.7976    0.0000 C   0  0  0  0  0  0  0  0  0  0  0  0
    8.2801    0.6976    0.0000 O   0  0  0  0  0  0  0  0  0  0  0  0
    9.4884    0.0000    0.0000 C   0  0  0  0  0  0  0  0  0  0  0  0
  1  2  2  0  0  0  0
  2  3  1  0  0  0  0
  3  4  2  0  0  0  0
  4  5  1  0  0  0  0
  5  6  2  0  0  0  0
  6  1  1  0  0  0  0
  6  7  1  0  0  0  0
  7  8  2  0  0  0  0
  8  9  1  0  0  0  0
  9 10  1  0  0  0  0
 10 11  2  0  0  0  0
 11  7  1  0  0  0  0
 10 12  1  0  0  0  0
 12 13  2  0  0  0  0
 13 14  1  0  0  0  0
 14 15  2  0  0  0  0
 15 11  1  0  0  0  0
  4 16  1  0  0  0  0
 16 17  1  0  0  0  0
 17 18  2  0  0  0  0
 18 19  1  0  0  0  0
 19 20  2  0  0  0  0
 20 21  1  0  0  0  0
 21 22  2  0  0  0  0
 22 17  1  0  0  0  0
 21 23  1  0  0  0  0
 23 24  1  0  0  0  0
 24 25  1  0  0  0  0
 24 26  2  0  0  0  0
 25 27  2  0  0  0  0
 20 28  1  0  0  0  0
 28 29  1  0  0  0  0
 28 30  1  0  0  0  0
 29 31  1  0  0  0  0
 31 32  1  0  0  0  0
 32 33  1  0  0  0  0
 32 34  1  0  0  0  0
 18 35  1  0  0  0  0
 35 36  1  0  0  0  0
M  END
>  <Mol_ID> (517)
2964

>  <Formula> (517)
C27H31N7O2

>  <MolWeight> (517)
485.58074

>  <Cat> (517)
S7298

>  <Name> (517)
AZ5104

>  <Synonyms> (517)
N/A

>  <Target> (517)
EGFR

>  <Form> (517)
Free Base

>  <CAS> (517)
1421373-98-9

>  <URL> (517)
http://www.selleckchem.com/products/az5104.html

$$$$
HG-9-91-01.cdx
csChFnd80/05071909292D

 79 83  0     0  0  0  0  0  0999 V2000
    3.7320   -0.5000    0.0000 O   0  0  0  0  0  0  0  0  0  0  0  0
    3.7320    0.5000    0.0000 O   0  0  0  0  0  0  0  0  0  0  0  0
    5.4641   -3.5000    0.0000 O   0  0  0  0  0  0  0  0  0  0  0  0
   12.3923    2.5000    0.0000 N   0  0  0  0  0  0  0  0  0  0  0  0
   14.1244    3.5000    0.0000 N   0  0  0  0  0  0  0  0  0  0  0  0
    8.9282    0.5000    0.0000 N   0  0  0  0  0  0  0  0  0  0  0  0
    5.4641    0.5000    0.0000 N   0  0  0  0  0  0  0  0  0  0  0  0
    4.5981    2.0000    0.0000 N   0  0  0  0  0  0  0  0  0  0  0  0
    8.0622    2.0000    0.0000 N   0  0  0  0  0  0  0  0  0  0  0  0
    6.3301    2.0000    0.0000 N   0  0  0  0  0  0  0  0  0  0  0  0
   12.3923    3.5000    0.0000 C   0  0  0  0  0  0  0  0  0  0  0  0
   13.2583    2.0000    0.0000 C   0  0  0  0  0  0  0  0  0  0  0  0
   13.2583    4.0000    0.0000 C   0  0  0  0  0  0  0  0  0  0  0  0
   14.1244    2.5000    0.0000 C   0  0  0  0  0  0  0  0  0  0  0  0
   11.5263    2.0000    0.0000 C   0  0  0  0  0  0  0  0  0  0  0  0
   14.9904    4.0000    0.0000 C   0  0  0  0  0  0  0  0  0  0  0  0
   11.5263    1.0000    0.0000 C   0  0  0  0  0  0  0  0  0  0  0  0
   10.6603    2.5000    0.0000 C   0  0  0  0  0  0  0  0  0  0  0  0
   10.6603    0.5000    0.0000 C   0  0  0  0  0  0  0  0  0  0  0  0
    9.7942    2.0000    0.0000 C   0  0  0  0  0  0  0  0  0  0  0  0
    9.7942    1.0000    0.0000 C   0  0  0  0  0  0  0  0  0  0  0  0
    8.0622    1.0000    0.0000 C   0  0  0  0  0  0  0  0  0  0  0  0
    7.1962    0.5000    0.0000 C   0  0  0  0  0  0  0  0  0  0  0  0
    6.3301    1.0000    0.0000 C   0  0  0  0  0  0  0  0  0  0  0  0
    5.4641   -0.5000    0.0000 C   0  0  0  0  0  0  0  0  0  0  0  0
    3.7320    2.5000    0.0000 C   0  0  0  0  0  0  0  0  0  0  0  0
    4.5981    1.0000    0.0000 C   0  0  0  0  0  0  0  0  0  0  0  0
    2.8660    2.0000    0.0000 C   0  0  0  0  0  0  0  0  0  0  0  0
    3.7320    3.5000    0.0000 C   0  0  0  0  0  0  0  0  0  0  0  0
    4.5981   -1.0000    0.0000 C   0  0  0  0  0  0  0  0  0  0  0  0
    6.3301   -1.0000    0.0000 C   0  0  0  0  0  0  0  0  0  0  0  0
    7.1962    2.5000    0.0000 C   0  0  0  0  0  0  0  0  0  0  0  0
    2.0000    2.5000    0.0000 C   0  0  0  0  0  0  0  0  0  0  0  0
    2.8660    4.0000    0.0000 C   0  0  0  0  0  0  0  0  0  0  0  0
    4.5981   -2.0000    0.0000 C   0  0  0  0  0  0  0  0  0  0  0  0
    2.8660    1.0000    0.0000 C   0  0  0  0  0  0  0  0  0  0  0  0
    4.5981    4.0000    0.0000 C   0  0  0  0  0  0  0  0  0  0  0  0
    2.0000    3.5000    0.0000 C   0  0  0  0  0  0  0  0  0  0  0  0
    6.3301   -2.0000    0.0000 C   0  0  0  0  0  0  0  0  0  0  0  0
    5.4641   -2.5000    0.0000 C   0  0  0  0  0  0  0  0  0  0  0  0
    2.8660   -1.0000    0.0000 C   0  0  0  0  0  0  0  0  0  0  0  0
    6.3301   -4.0000    0.0000 C   0  0  0  0  0  0  0  0  0  0  0  0
   12.1803    4.0826    0.0000 H   0  0  0  0  0  0  0  0  0  0  0  0
   11.7817    3.3923    0.0000 H   0  0  0  0  0  0  0  0  0  0  0  0
   12.8598    1.5250    0.0000 H   0  0  0  0  0  0  0  0  0  0  0  0
   13.6569    1.5250    0.0000 H   0  0  0  0  0  0  0  0  0  0  0  0
   13.6569    4.4750    0.0000 H   0  0  0  0  0  0  0  0  0  0  0  0
   12.8598    4.4750    0.0000 H   0  0  0  0  0  0  0  0  0  0  0  0
   14.3364    1.9174    0.0000 H   0  0  0  0  0  0  0  0  0  0  0  0
   14.7349    2.6077    0.0000 H   0  0  0  0  0  0  0  0  0  0  0  0
   15.3004    3.4631    0.0000 H   0  0  0  0  0  0  0  0  0  0  0  0
   15.5273    4.3100    0.0000 H   0  0  0  0  0  0  0  0  0  0  0  0
   14.6804    4.5369    0.0000 H   0  0  0  0  0  0  0  0  0  0  0  0
   12.0632    0.6900    0.0000 H   0  0  0  0  0  0  0  0  0  0  0  0
   10.6603    3.1200    0.0000 H   0  0  0  0  0  0  0  0  0  0  0  0
   10.6603   -0.1200    0.0000 H   0  0  0  0  0  0  0  0  0  0  0  0
    9.2573    2.3100    0.0000 H   0  0  0  0  0  0  0  0  0  0  0  0
    8.9282   -0.1200    0.0000 H   0  0  0  0  0  0  0  0  0  0  0  0
    7.1962   -0.1200    0.0000 H   0  0  0  0  0  0  0  0  0  0  0  0
    5.1350    2.3100    0.0000 H   0  0  0  0  0  0  0  0  0  0  0  0
    6.8671   -0.6900    0.0000 H   0  0  0  0  0  0  0  0  0  0  0  0
    7.1962    3.1200    0.0000 H   0  0  0  0  0  0  0  0  0  0  0  0
    1.4631    2.1900    0.0000 H   0  0  0  0  0  0  0  0  0  0  0  0
    2.8660    4.6200    0.0000 H   0  0  0  0  0  0  0  0  0  0  0  0
    4.0611   -2.3100    0.0000 H   0  0  0  0  0  0  0  0  0  0  0  0
    2.2460    1.0000    0.0000 H   0  0  0  0  0  0  0  0  0  0  0  0
    2.8660    0.3800    0.0000 H   0  0  0  0  0  0  0  0  0  0  0  0
    3.4860    1.0000    0.0000 H   0  0  0  0  0  0  0  0  0  0  0  0
    4.9081    3.4631    0.0000 H   0  0  0  0  0  0  0  0  0  0  0  0
    5.1350    4.3100    0.0000 H   0  0  0  0  0  0  0  0  0  0  0  0
    4.2881    4.5369    0.0000 H   0  0  0  0  0  0  0  0  0  0  0  0
    1.4631    3.8100    0.0000 H   0  0  0  0  0  0  0  0  0  0  0  0
    6.8671   -2.3100    0.0000 H   0  0  0  0  0  0  0  0  0  0  0  0
    2.5560   -0.4631    0.0000 H   0  0  0  0  0  0  0  0  0  0  0  0
    2.3291   -1.3100    0.0000 H   0  0  0  0  0  0  0  0  0  0  0  0
    3.1760   -1.5369    0.0000 H   0  0  0  0  0  0  0  0  0  0  0  0
    6.0201   -4.5369    0.0000 H   0  0  0  0  0  0  0  0  0  0  0  0
    6.8671   -4.3100    0.0000 H   0  0  0  0  0  0  0  0  0  0  0  0
    6.6401   -3.4631    0.0000 H   0  0  0  0  0  0  0  0  0  0  0  0
  1 30  1  0  0  0  0
  1 41  1  0  0  0  0
  2 27  2  0  0  0  0
  3 40  1  0  0  0  0
  3 42  1  0  0  0  0
  4 11  1  0  0  0  0
  4 12  1  0  0  0  0
  4 15  1  0  0  0  0
  5 13  1  0  0  0  0
  5 14  1  0  0  0  0
  5 16  1  0  0  0  0
  6 21  1  0  0  0  0
  6 22  1  0  0  0  0
  6 58  1  0  0  0  0
  7 24  1  0  0  0  0
  7 25  1  0  0  0  0
  7 27  1  0  0  0  0
  8 26  1  0  0  0  0
  8 27  1  0  0  0  0
  8 60  1  0  0  0  0
  9 22  1  0  0  0  0
  9 32  2  0  0  0  0
 10 24  2  0  0  0  0
 10 32  1  0  0  0  0
 11 13  1  0  0  0  0
 11 43  1  0  0  0  0
 11 44  1  0  0  0  0
 12 14  1  0  0  0  0
 12 45  1  0  0  0  0
 12 46  1  0  0  0  0
 13 47  1  0  0  0  0
 13 48  1  0  0  0  0
 14 49  1  0  0  0  0
 14 50  1  0  0  0  0
 15 17  2  0  0  0  0
 15 18  1  0  0  0  0
 16 51  1  0  0  0  0
 16 52  1  0  0  0  0
 16 53  1  0  0  0  0
 17 19  1  0  0  0  0
 17 54  1  0  0  0  0
 18 20  2  0  0  0  0
 18 55  1  0  0  0  0
 19 21  2  0  0  0  0
 19 56  1  0  0  0  0
 20 21  1  0  0  0  0
 20 57  1  0  0  0  0
 22 23  2  0  0  0  0
 23 24  1  0  0  0  0
 23 59  1  0  0  0  0
 25 30  2  0  0  0  0
 25 31  1  0  0  0  0
 26 28  2  0  0  0  0
 26 29  1  0  0  0  0
 28 33  1  0  0  0  0
 28 36  1  0  0  0  0
 29 34  2  0  0  0  0
 29 37  1  0  0  0  0
 30 35  1  0  0  0  0
 31 39  2  0  0  0  0
 31 61  1  0  0  0  0
 32 62  1  0  0  0  0
 33 38  2  0  0  0  0
 33 63  1  0  0  0  0
 34 38  1  0  0  0  0
 34 64  1  0  0  0  0
 35 40  2  0  0  0  0
 35 65  1  0  0  0  0
 36 66  1  0  0  0  0
 36 67  1  0  0  0  0
 36 68  1  0  0  0  0
 37 69  1  0  0  0  0
 37 70  1  0  0  0  0
 37 71  1  0  0  0  0
 38 72  1  0  0  0  0
 39 40  1  0  0  0  0
 39 73  1  0  0  0  0
 41 74  1  0  0  0  0
 41 75  1  0  0  0  0
 41 76  1  0  0  0  0
 42 77  1  0  0  0  0
 42 78  1  0  0  0  0
 42 79  1  0  0  0  0
M  END
>  <Mol_ID> (770)
1986

>  <Formula> (770)
C32H37N7O3

>  <MolWeight> (770)
567.6943235

>  <Cat> (770)
S1003

>  <Name> (770)
HG-9-91-01

>  <Synonyms> (770)


>  <Target> (770)
SIK1,SIK2,SIK3

>  <Form> (770)
Free Base

>  <CAS> (770)
1456858-58-4

>  <URL> (770)
http://www.selleckchem.com/products/HG-9-91-01.html

$$$$
NPS-1034.cdx
csChFnd80/05071909292D

 41 46  0  0  0  0  0  0  0  0999 V2000
    3.5661    2.1000    0.0000 C   0  0  0  0  0  0  0  0  0  0  0  0
    3.5661    0.7000    0.0000 C   0  0  0  0  0  0  0  0  0  0  0  0
    4.7786    0.0000    0.0000 N   0  0  0  0  0  0  0  0  0  0  0  0
    5.9910    0.7000    0.0000 C   0  0  0  0  0  0  0  0  0  0  0  0
    5.9910    2.1000    0.0000 C   0  0  0  0  0  0  0  0  0  0  0  0
    4.7786    2.8000    0.0000 C   0  0  0  0  0  0  0  0  0  0  0  0
    2.2347    2.5326    0.0000 C   0  0  0  0  0  0  0  0  0  0  0  0
    1.4118    1.4000    0.0000 C   0  0  0  0  0  0  0  0  0  0  0  0
    2.2347    0.2674    0.0000 N   0  0  0  0  0  0  0  0  0  0  0  0
    1.8020    3.8641    0.0000 C   0  0  0  0  0  0  0  0  0  0  0  0
    2.7388    4.9045    0.0000 C   0  0  0  0  0  0  0  0  0  0  0  0
    2.3062    6.2360    0.0000 C   0  0  0  0  0  0  0  0  0  0  0  0
    0.9368    6.5271    0.0000 C   0  0  0  0  0  0  0  0  0  0  0  0
    0.0000    5.4867    0.0000 C   0  0  0  0  0  0  0  0  0  0  0  0
    0.4326    4.1552    0.0000 C   0  0  0  0  0  0  0  0  0  0  0  0
    4.7786    4.2000    0.0000 O   0  0  0  0  0  0  0  0  0  0  0  0
    5.9910    4.9000    0.0000 C   0  0  0  0  0  0  0  0  0  0  0  0
    7.2034    4.2000    0.0000 C   0  0  0  0  0  0  0  0  0  0  0  0
    8.4159    4.9000    0.0000 C   0  0  0  0  0  0  0  0  0  0  0  0
    8.4159    6.3000    0.0000 C   0  0  0  0  0  0  0  0  0  0  0  0
    7.2034    7.0000    0.0000 C   0  0  0  0  0  0  0  0  0  0  0  0
    5.9910    6.3000    0.0000 C   0  0  0  0  0  0  0  0  0  0  0  0
    4.7786    7.0000    0.0000 F   0  0  0  0  0  0  0  0  0  0  0  0
    9.6283    7.0000    0.0000 N   0  0  0  0  0  0  0  0  0  0  0  0
   10.8407    6.3000    0.0000 C   0  0  0  0  0  0  0  0  0  0  0  0
   12.0532    7.0000    0.0000 C   0  0  0  0  0  0  0  0  0  0  0  0
   10.8407    4.9000    0.0000 O   0  0  0  0  0  0  0  0  0  0  0  0
   13.3321    6.4306    0.0000 C   0  0  0  0  0  0  0  0  0  0  0  0
   14.2689    7.4710    0.0000 N   0  0  0  0  0  0  0  0  0  0  0  0
   13.5689    8.6834    0.0000 N   0  0  0  0  0  0  0  0  0  0  0  0
   12.1995    8.3923    0.0000 C   0  0  0  0  0  0  0  0  0  0  0  0
   11.1591    9.3291    0.0000 O   0  0  0  0  0  0  0  0  0  0  0  0
   14.1384    9.9624    0.0000 C   0  0  0  0  0  0  0  0  0  0  0  0
   15.5307   10.1087    0.0000 C   0  0  0  0  0  0  0  0  0  0  0  0
   16.1001   11.3877    0.0000 C   0  0  0  0  0  0  0  0  0  0  0  0
   15.2772   12.5203    0.0000 C   0  0  0  0  0  0  0  0  0  0  0  0
   13.8849   12.3740    0.0000 C   0  0  0  0  0  0  0  0  0  0  0  0
   13.3155   11.0950    0.0000 C   0  0  0  0  0  0  0  0  0  0  0  0
   15.8467   13.7993    0.0000 F   0  0  0  0  0  0  0  0  0  0  0  0
   15.6613    7.3246    0.0000 C   0  0  0  0  0  0  0  0  0  0  0  0
   13.6222    5.0659    0.0000 C   0  0  0  0  0  0  0  0  0  0  0  0
  1  2  2  0  0  0  0
  2  3  1  0  0  0  0
  3  4  2  0  0  0  0
  4  5  1  0  0  0  0
  5  6  2  0  0  0  0
  6  1  1  0  0  0  0
  1  7  1  0  0  0  0
  7  8  2  0  0  0  0
  8  9  1  0  0  0  0
  9  2  1  0  0  0  0
  7 10  1  0  0  0  0
 10 11  2  0  0  0  0
 11 12  1  0  0  0  0
 12 13  2  0  0  0  0
 13 14  1  0  0  0  0
 14 15  2  0  0  0  0
 15 10  1  0  0  0  0
  6 16  1  0  0  0  0
 16 17  1  0  0  0  0
 17 18  2  0  0  0  0
 18 19  1  0  0  0  0
 19 20  2  0  0  0  0
 20 21  1  0  0  0  0
 21 22  2  0  0  0  0
 22 17  1  0  0  0  0
 22 23  1  0  0  0  0
 20 24  1  0  0  0  0
 24 25  1  0  0  0  0
 25 26  1  0  0  0  0
 25 27  2  0  0  0  0
 26 28  2  0  0  0  0
 28 29  1  0  0  0  0
 29 30  1  0  0  0  0
 30 31  1  0  0  0  0
 31 26  1  0  0  0  0
 31 32  2  0  0  0  0
 30 33  1  0  0  0  0
 33 34  2  0  0  0  0
 34 35  1  0  0  0  0
 35 36  2  0  0  0  0
 36 37  1  0  0  0  0
 37 38  2  0  0  0  0
 38 33  1  0  0  0  0
 36 39  1  0  0  0  0
 29 40  1  0  0  0  0
 28 41  1  0  0  0  0
M  END
>  <Mol_ID> (519)
2969

>  <Formula> (519)
C31H23F2N5O3

>  <MolWeight> (519)
551.5428264

>  <Cat> (519)
S7669

>  <Name> (519)
NPS-1034

>  <Synonyms> (519)
N/A

>  <Target> (519)
c-Met

>  <Form> (519)
Free Base

>  <CAS> (519)
1221713-92-3

>  <URL> (519)
http://www.selleckchem.com/products/nps-1034.html

$$$$
KN-93 H3PO4.cdx
csChFnd80/05071909292D

 39 40  0  0  0  0  0  0  0  0999 V2000
    9.6987    6.8285    0.0000 C   0  0  0  0  0  0  0  0  0  0  0  0
   10.9111    7.5285    0.0000 N   0  0  0  0  0  0  0  0  0  0  0  0
    8.4853    7.5389    0.0000 C   0  0  0  0  0  0  0  0  0  0  0  0
    9.7057    5.4237    0.0000 C   0  0  0  0  0  0  0  0  0  0  0  0
   12.1235    6.8285    0.0000 S   0  0  0  0  0  0  0  0  0  0  0  0
   10.9111    8.9285    0.0000 C   0  0  0  0  0  0  0  0  0  0  0  0
    8.4853    8.9389    0.0000 C   0  0  0  0  0  0  0  0  0  0  0  0
    7.2736    6.8408    0.0000 C   0  0  0  0  0  0  0  0  0  0  0  0
    8.4668    4.7066    0.0000 C   0  0  0  0  0  0  0  0  0  0  0  0
   13.3360    6.1285    0.0000 C   0  0  0  0  0  0  0  0  0  0  0  0
   11.4235    5.6160    0.0000 O   0  0  0  0  0  0  0  0  0  0  0  0
   12.8235    8.0409    0.0000 O   0  0  0  0  0  0  0  0  0  0  0  0
   12.1235    9.6285    0.0000 C   0  0  0  0  0  0  0  0  0  0  0  0
    7.2742    9.6381    0.0000 N   0  0  0  0  0  0  0  0  0  0  0  0
    7.2520    5.4124    0.0000 C   0  0  0  0  0  0  0  0  0  0  0  0
   13.3431    4.6513    0.0000 C   0  0  0  0  0  0  0  0  0  0  0  0
   14.4874    6.7859    0.0000 C   0  0  0  0  0  0  0  0  0  0  0  0
   12.1235   11.0285    0.0000 O   0  0  0  0  0  0  0  0  0  0  0  0
    7.2742   11.0389    0.0000 C   0  0  0  0  0  0  0  0  0  0  0  0
    6.0624    8.9385    0.0000 C   0  0  0  0  0  0  0  0  0  0  0  0
   14.5756    3.9779    0.0000 C   0  0  0  0  0  0  0  0  0  0  0  0
   15.7202    6.1124    0.0000 C   0  0  0  0  0  0  0  0  0  0  0  0
    6.0621   11.7387    0.0000 C   0  0  0  0  0  0  0  0  0  0  0  0
   15.7378    4.6569    0.0000 C   0  0  0  0  0  0  0  0  0  0  0  0
    4.8498   11.0388    0.0000 C   0  0  0  0  0  0  0  0  0  0  0  0
   16.9502    3.9569    0.0000 O   0  0  0  0  0  0  0  0  0  0  0  0
    3.6373   11.7388    0.0000 C   0  0  0  0  0  0  0  0  0  0  0  0
   18.1663    4.6590    0.0000 C   0  0  0  0  0  0  0  0  0  0  0  0
    3.6373   13.1389    0.0000 C   0  0  0  0  0  0  0  0  0  0  0  0
    2.4249   11.0389    0.0000 C   0  0  0  0  0  0  0  0  0  0  0  0
    2.4249   13.8389    0.0000 C   0  0  0  0  0  0  0  0  0  0  0  0
    1.2124   11.7389    0.0000 C   0  0  0  0  0  0  0  0  0  0  0  0
    1.2124   13.1389    0.0000 C   0  0  0  0  0  0  0  0  0  0  0  0
    0.0000   13.8389    0.0000 Cl  0  0  0  0  0  0  0  0  0  0  0  0
    8.5657    1.4000    0.0000 P   0  0  0  0  0  0  0  0  0  0  0  0
    8.5657    0.0000    0.0000 O   0  0  0  0  0  0  0  0  0  0  0  0
    7.1657    1.4000    0.0000 O   0  0  0  0  0  0  0  0  0  0  0  0
    9.9657    1.4000    0.0000 O   0  0  0  0  0  0  0  0  0  0  0  0
    8.5657    2.8000    0.0000 O   0  0  0  0  0  0  0  0  0  0  0  0
  1  2  1  0  0  0  0
  1  3  1  0  0  0  0
  1  4  2  0  0  0  0
  2  5  1  0  0  0  0
  2  6  1  0  0  0  0
  3  7  1  0  0  0  0
  3  8  2  0  0  0  0
  4  9  1  0  0  0  0
  5 10  1  0  0  0  0
  5 11  2  0  0  0  0
  5 12  2  0  0  0  0
  6 13  1  0  0  0  0
  7 14  1  0  0  0  0
  8 15  1  0  0  0  0
  9 15  2  0  0  0  0
 10 16  2  0  0  0  0
 10 17  1  0  0  0  0
 13 18  1  0  0  0  0
 14 19  1  0  0  0  0
 14 20  1  0  0  0  0
 16 21  1  0  0  0  0
 17 22  2  0  0  0  0
 19 23  1  0  0  0  0
 21 24  2  0  0  0  0
 22 24  1  0  0  0  0
 23 25  2  0  0  0  0
 24 26  1  0  0  0  0
 25 27  1  0  0  0  0
 26 28  1  0  0  0  0
 27 29  2  0  0  0  0
 27 30  1  0  0  0  0
 29 31  1  0  0  0  0
 30 32  2  0  0  0  0
 31 33  2  0  0  0  0
 32 33  1  0  0  0  0
 33 34  1  0  0  0  0
 35 36  2  0  0  0  0
 35 37  1  0  0  0  0
 35 38  1  0  0  0  0
 35 39  1  0  0  0  0
M  END
>  <Mol_ID> (520)
2971

>  <Formula> (520)
C26H32ClN2O8PS

>  <MolWeight> (520)
599.032641

>  <Cat> (520)
S7423

>  <Name> (520)
KN-93 Phosphate

>  <Synonyms> (520)
N/A

>  <Target> (520)
CaMK

>  <Form> (520)
Free Base

>  <CAS> (520)
1188890-41-6

>  <URL> (520)
http://www.selleckchem.com/products/kn-93-phosphate.html

$$$$
GDC0623.cdx
csChFnd80/05071909292D

 25 27  0  0  0  0  0  0  0  0999 V2000
    7.2494    6.2927    0.0000 C   0  0  0  0  0  0  0  0  0  0  0  0
    7.2494    4.8927    0.0000 C   0  0  0  0  0  0  0  0  0  0  0  0
    8.4618    4.1927    0.0000 C   0  0  0  0  0  0  0  0  0  0  0  0
    9.6742    4.8927    0.0000 N   0  0  0  0  0  0  0  0  0  0  0  0
    9.6742    6.2927    0.0000 C   0  0  0  0  0  0  0  0  0  0  0  0
    8.4618    6.9927    0.0000 C   0  0  0  0  0  0  0  0  0  0  0  0
   11.0057    4.4601    0.0000 C   0  0  0  0  0  0  0  0  0  0  0  0
   11.8286    5.5927    0.0000 N   0  0  0  0  0  0  0  0  0  0  0  0
   11.0057    6.7253    0.0000 C   0  0  0  0  0  0  0  0  0  0  0  0
    8.4618    2.7976    0.0000 N   0  0  0  0  0  0  0  0  0  0  0  0
    9.6700    2.1000    0.0000 C   0  0  0  0  0  0  0  0  0  0  0  0
    9.6700    0.7000    0.0000 C   0  0  0  0  0  0  0  0  0  0  0  0
   10.8825    0.0000    0.0000 C   0  0  0  0  0  0  0  0  0  0  0  0
   12.0949    0.7000    0.0000 C   0  0  0  0  0  0  0  0  0  0  0  0
   12.0949    2.1000    0.0000 C   0  0  0  0  0  0  0  0  0  0  0  0
   10.8825    2.8000    0.0000 C   0  0  0  0  0  0  0  0  0  0  0  0
    8.4618    0.0024    0.0000 F   0  0  0  0  0  0  0  0  0  0  0  0
   13.3031    0.0024    0.0000 I   0  0  0  0  0  0  0  0  0  0  0  0
    6.0411    4.1951    0.0000 C   0  0  0  0  0  0  0  0  0  0  0  0
    4.8329    4.8927    0.0000 N   0  0  0  0  0  0  0  0  0  0  0  0
    3.6247    4.1951    0.0000 O   0  0  0  0  0  0  0  0  0  0  0  0
    2.4165    4.8927    0.0000 C   0  0  0  0  0  0  0  0  0  0  0  0
    1.2082    4.1951    0.0000 C   0  0  0  0  0  0  0  0  0  0  0  0
    0.0000    4.8927    0.0000 O   0  0  0  0  0  0  0  0  0  0  0  0
    6.0411    2.8000    0.0000 O   0  0  0  0  0  0  0  0  0  0  0  0
  1  2  1  0  0  0  0
  2  3  2  0  0  0  0
  3  4  1  0  0  0  0
  4  5  1  0  0  0  0
  5  6  1  0  0  0  0
  6  1  2  0  0  0  0
  4  7  1  0  0  0  0
  7  8  2  0  0  0  0
  8  9  1  0  0  0  0
  9  5  2  0  0  0  0
  3 10  1  0  0  0  0
 10 11  1  0  0  0  0
 11 12  2  0  0  0  0
 12 13  1  0  0  0  0
 13 14  2  0  0  0  0
 14 15  1  0  0  0  0
 15 16  2  0  0  0  0
 16 11  1  0  0  0  0
 12 17  1  0  0  0  0
 14 18  1  0  0  0  0
  2 19  1  0  0  0  0
 19 20  1  0  0  0  0
 20 21  1  0  0  0  0
 21 22  1  0  0  0  0
 22 23  1  0  0  0  0
 23 24  1  0  0  0  0
 19 25  2  0  0  0  0
M  END
>  <Mol_ID> (521)
2976

>  <Formula> (521)
C16H14FIN4O3

>  <MolWeight> (521)
456.2102332

>  <Cat> (521)
S7553

>  <Name> (521)
GDC-0623

>  <Synonyms> (521)
G-868

>  <Target> (521)
MEK

>  <Form> (521)
Free Base

>  <CAS> (521)
1168091-68-6

>  <URL> (521)
http://www.selleckchem.com/products/gdc-0623.html

$$$$
PF-4989216.cdx
csChFnd80/05071909292D

 27 30  0  0  0  0  0  0  0  0999 V2000
    3.9599    7.1093    0.0000 C   0  0  0  0  0  0  0  0  0  0  0  0
    4.3627    5.7685    0.0000 C   0  0  0  0  0  0  0  0  0  0  0  0
    5.7623    5.7372    0.0000 C   0  0  0  0  0  0  0  0  0  0  0  0
    6.2246    7.0587    0.0000 C   0  0  0  0  0  0  0  0  0  0  0  0
    5.1106    7.9067    0.0000 S   0  0  0  0  0  0  0  0  0  0  0  0
    2.6430    7.5699    0.0000 N   0  0  0  0  0  0  0  0  0  0  0  0
    3.5177    4.6584    0.0000 C   0  0  0  0  0  0  0  0  0  0  0  0
    6.5570    4.5905    0.0000 C   0  0  0  0  0  0  0  0  0  0  0  0
    7.5607    7.4601    0.0000 C   0  0  0  0  0  0  0  0  0  0  0  0
    8.6494    6.5799    0.0000 N   0  0  0  0  0  0  0  0  0  0  0  0
    9.8230    7.3432    0.0000 N   0  0  0  0  0  0  0  0  0  0  0  0
    9.4596    8.6953    0.0000 C   0  0  0  0  0  0  0  0  0  0  0  0
    8.0615    8.6953    0.0000 N   0  0  0  0  0  0  0  0  0  0  0  0
    5.9591    3.3246    0.0000 C   0  0  0  0  0  0  0  0  0  0  0  0
    6.7566    2.1738    0.0000 C   0  0  0  0  0  0  0  0  0  0  0  0
    8.1518    2.2891    0.0000 C   0  0  0  0  0  0  0  0  0  0  0  0
    8.7496    3.5550    0.0000 C   0  0  0  0  0  0  0  0  0  0  0  0
    7.9522    4.7057    0.0000 C   0  0  0  0  0  0  0  0  0  0  0  0
    4.5687    3.2097    0.0000 F   0  0  0  0  0  0  0  0  0  0  0  0
    8.9465    1.1424    0.0000 C   0  0  0  0  0  0  0  0  0  0  0  0
    2.6767    3.5500    0.0000 N   0  0  0  0  0  0  0  0  0  0  0  0
    9.7388    0.0000    0.0000 N   0  0  0  0  0  0  0  0  0  0  0  0
    2.3825    8.9455    0.0000 C   0  0  0  0  0  0  0  0  0  0  0  0
    1.0611    9.4077    0.0000 C   0  0  0  0  0  0  0  0  0  0  0  0
    0.0000    8.4944    0.0000 O   0  0  0  0  0  0  0  0  0  0  0  0
    0.2604    7.1188    0.0000 C   0  0  0  0  0  0  0  0  0  0  0  0
    1.5819    6.6566    0.0000 C   0  0  0  0  0  0  0  0  0  0  0  0
  1  2  2  0  0  0  0
  2  3  1  0  0  0  0
  3  4  2  0  0  0  0
  4  5  1  0  0  0  0
  5  1  1  0  0  0  0
  1  6  1  0  0  0  0
  2  7  1  0  0  0  0
  3  8  1  0  0  0  0
  4  9  1  0  0  0  0
  9 10  1  0  0  0  0
 10 11  1  0  0  0  0
 11 12  2  0  0  0  0
 12 13  1  0  0  0  0
 13  9  2  0  0  0  0
  8 14  2  0  0  0  0
 14 15  1  0  0  0  0
 15 16  2  0  0  0  0
 16 17  1  0  0  0  0
 17 18  2  0  0  0  0
 18  8  1  0  0  0  0
 14 19  1  0  0  0  0
 16 20  1  0  0  0  0
  7 21  3  0  0  0  0
 20 22  3  0  0  0  0
  6 23  1  0  0  0  0
 23 24  1  0  0  0  0
 24 25  1  0  0  0  0
 25 26  1  0  0  0  0
 26 27  1  0  0  0  0
 27  6  1  0  0  0  0
M  END
>  <Mol_ID> (522)
2979

>  <Formula> (522)
C18H13FN6OS

>  <MolWeight> (522)
380.3988232

>  <Cat> (522)
S7675

>  <Name> (522)
PF-4989216

>  <Synonyms> (522)
N/A

>  <Target> (522)
PI3K

>  <Form> (522)
Free Base

>  <CAS> (522)
1276553-09-3

>  <URL> (522)
http://www.selleckchem.com/products/pf-4989216.html

$$$$
AZD8186.cdx
csChFnd80/05071909292D

 33 36  0  0  0  0  0  0  0  0999 V2000
    6.0523    7.0109    0.0000 C   0  0  0  0  0  0  0  0  0  0  0  0
    6.0523    8.4036    0.0000 C   0  0  0  0  0  0  0  0  0  0  0  0
    4.8399    9.1036    0.0000 C   0  0  0  0  0  0  0  0  0  0  0  0
    3.6195    8.3991    0.0000 C   0  0  0  0  0  0  0  0  0  0  0  0
    3.6195    6.9893    0.0000 C   0  0  0  0  0  0  0  0  0  0  0  0
    4.8340    6.2881    0.0000 C   0  0  0  0  0  0  0  0  0  0  0  0
    7.2608    6.3131    0.0000 O   0  0  0  0  0  0  0  0  0  0  0  0
    8.4736    7.0133    0.0000 C   0  0  0  0  0  0  0  0  0  0  0  0
    8.4736    8.4254    0.0000 C   0  0  0  0  0  0  0  0  0  0  0  0
    7.2378    9.1388    0.0000 C   0  0  0  0  0  0  0  0  0  0  0  0
    7.2378   10.4951    0.0000 O   0  0  0  0  0  0  0  0  0  0  0  0
    9.6672    6.3241    0.0000 N   0  0  0  0  0  0  0  0  0  0  0  0
    4.8340    4.8955    0.0000 C   0  0  1  0  0  0  0  0  0  0  0  0
    2.4206    9.0913    0.0000 C   0  0  0  0  0  0  0  0  0  0  0  0
    1.2089    8.3917    0.0000 N   0  0  0  0  0  0  0  0  0  0  0  0
    2.4206   10.4861    0.0000 O   0  0  0  0  0  0  0  0  0  0  0  0
    0.0000    9.0897    0.0000 C   0  0  0  0  0  0  0  0  0  0  0  0
    1.2089    6.9937    0.0000 C   0  0  0  0  0  0  0  0  0  0  0  0
    3.6243    4.1970    0.0000 C   0  0  0  0  0  0  0  0  0  0  0  0
    6.0440    4.1969    0.0000 N   0  0  0  0  0  0  0  0  0  0  0  0
    6.0440    2.8000    0.0000 C   0  0  0  0  0  0  0  0  0  0  0  0
    4.8306    2.0994    0.0000 C   0  0  0  0  0  0  0  0  0  0  0  0
    4.8306    0.7024    0.0000 C   0  0  0  0  0  0  0  0  0  0  0  0
    6.0472    0.0000    0.0000 C   0  0  0  0  0  0  0  0  0  0  0  0
    7.2631    0.7020    0.0000 C   0  0  0  0  0  0  0  0  0  0  0  0
    7.2631    2.1046    0.0000 C   0  0  0  0  0  0  0  0  0  0  0  0
    3.6207    0.0039    0.0000 F   0  0  0  0  0  0  0  0  0  0  0  0
    8.4730    0.0035    0.0000 F   0  0  0  0  0  0  0  0  0  0  0  0
    9.6672    4.9426    0.0000 C   0  0  0  0  0  0  0  0  0  0  0  0
   10.9044    4.2283    0.0000 C   0  0  0  0  0  0  0  0  0  0  0  0
   12.1414    4.9425    0.0000 O   0  0  0  0  0  0  0  0  0  0  0  0
   12.1414    6.3637    0.0000 C   0  0  0  0  0  0  0  0  0  0  0  0
   10.9169    7.0707    0.0000 C   0  0  0  0  0  0  0  0  0  0  0  0
  1  2  2  0  0  0  0
  2  3  1  0  0  0  0
  3  4  2  0  0  0  0
  4  5  1  0  0  0  0
  5  6  2  0  0  0  0
  6  1  1  0  0  0  0
  1  7  1  0  0  0  0
  7  8  1  0  0  0  0
  8  9  2  0  0  0  0
  9 10  1  0  0  0  0
 10  2  1  0  0  0  0
 10 11  2  0  0  0  0
  8 12  1  0  0  0  0
  6 13  1  0  0  0  0
  4 14  1  0  0  0  0
 14 15  1  0  0  0  0
 14 16  2  0  0  0  0
 15 17  1  0  0  0  0
 15 18  1  0  0  0  0
 13 19  1  6  0  0  0
 13 20  1  0  0  0  0
 20 21  1  0  0  0  0
 21 22  2  0  0  0  0
 22 23  1  0  0  0  0
 23 24  2  0  0  0  0
 24 25  1  0  0  0  0
 25 26  2  0  0  0  0
 26 21  1  0  0  0  0
 23 27  1  0  0  0  0
 25 28  1  0  0  0  0
 12 29  1  0  0  0  0
 29 30  1  0  0  0  0
 30 31  1  0  0  0  0
 31 32  1  0  0  0  0
 32 33  1  0  0  0  0
 33 12  1  0  0  0  0
M  END
>  <Mol_ID> (523)
2980

>  <Formula> (523)
C24H25F2N3O4

>  <MolWeight> (523)
457.4698064

>  <Cat> (523)
S7694

>  <Name> (523)
AZD8186

>  <Synonyms> (523)
N/A

>  <Target> (523)
Product Categories
PI3K/Akt/mTORPI3K
PI3K

>  <Form> (523)
Free Base

>  <CAS> (523)
1627494-13-6

>  <URL> (523)
http://www.selleckchem.com/products/azd8186.html

$$$$
BLU9931.cdx
csChFnd80/05071909292D

 35 38  0  0  0  0  0  0  0  0999 V2000
    7.2536    6.2927    0.0000 N   0  0  0  0  0  0  0  0  0  0  0  0
    7.2536    4.8927    0.0000 C   0  0  0  0  0  0  0  0  0  0  0  0
    8.4660    4.1927    0.0000 N   0  0  0  0  0  0  0  0  0  0  0  0
    9.6784    4.8927    0.0000 C   0  0  0  0  0  0  0  0  0  0  0  0
    9.6784    6.2927    0.0000 C   0  0  0  0  0  0  0  0  0  0  0  0
    8.4660    6.9927    0.0000 C   0  0  0  0  0  0  0  0  0  0  0  0
   10.8909    4.1927    0.0000 C   0  0  0  0  0  0  0  0  0  0  0  0
   12.1033    4.8927    0.0000 C   0  0  0  0  0  0  0  0  0  0  0  0
   12.1033    6.2927    0.0000 C   0  0  0  0  0  0  0  0  0  0  0  0
   10.8909    6.9927    0.0000 C   0  0  0  0  0  0  0  0  0  0  0  0
   13.3115    6.9903    0.0000 C   0  0  0  0  0  0  0  0  0  0  0  0
   14.5240    6.2903    0.0000 C   0  0  0  0  0  0  0  0  0  0  0  0
   15.7364    6.9903    0.0000 C   0  0  0  0  0  0  0  0  0  0  0  0
   15.7364    8.3903    0.0000 C   0  0  0  0  0  0  0  0  0  0  0  0
   14.5240    9.0903    0.0000 C   0  0  0  0  0  0  0  0  0  0  0  0
   13.3115    8.3903    0.0000 C   0  0  0  0  0  0  0  0  0  0  0  0
    6.0453    4.1951    0.0000 N   0  0  0  0  0  0  0  0  0  0  0  0
    6.0453    2.8000    0.0000 C   0  0  0  0  0  0  0  0  0  0  0  0
    4.8329    2.1000    0.0000 C   0  0  0  0  0  0  0  0  0  0  0  0
    4.8329    0.7000    0.0000 C   0  0  0  0  0  0  0  0  0  0  0  0
    6.0453    0.0000    0.0000 C   0  0  0  0  0  0  0  0  0  0  0  0
    7.2578    0.7000    0.0000 C   0  0  0  0  0  0  0  0  0  0  0  0
    7.2578    2.1000    0.0000 C   0  0  0  0  0  0  0  0  0  0  0  0
    3.6247    2.7976    0.0000 N   0  0  0  0  0  0  0  0  0  0  0  0
    2.4165    2.1000    0.0000 C   0  0  0  0  0  0  0  0  0  0  0  0
    1.2082    2.7976    0.0000 C   0  0  0  0  0  0  0  0  0  0  0  0
    0.0000    2.1000    0.0000 C   0  0  0  0  0  0  0  0  0  0  0  0
    2.4165    0.7049    0.0000 O   0  0  0  0  0  0  0  0  0  0  0  0
   12.1033    9.0879    0.0000 Cl  0  0  0  0  0  0  0  0  0  0  0  0
   14.5240    4.8951    0.0000 Cl  0  0  0  0  0  0  0  0  0  0  0  0
   14.5240   10.4854    0.0000 O   0  0  0  0  0  0  0  0  0  0  0  0
   16.9446    6.2927    0.0000 O   0  0  0  0  0  0  0  0  0  0  0  0
   16.9446    4.8976    0.0000 C   0  0  0  0  0  0  0  0  0  0  0  0
    8.4660    2.7976    0.0000 C   0  0  0  0  0  0  0  0  0  0  0  0
   15.7322   11.1830    0.0000 C   0  0  0  0  0  0  0  0  0  0  0  0
  1  2  2  0  0  0  0
  2  3  1  0  0  0  0
  3  4  2  0  0  0  0
  4  5  1  0  0  0  0
  5  6  2  0  0  0  0
  6  1  1  0  0  0  0
  4  7  1  0  0  0  0
  7  8  2  0  0  0  0
  8  9  1  0  0  0  0
  9 10  2  0  0  0  0
 10  5  1  0  0  0  0
  9 11  1  0  0  0  0
 11 12  2  0  0  0  0
 12 13  1  0  0  0  0
 13 14  2  0  0  0  0
 14 15  1  0  0  0  0
 15 16  2  0  0  0  0
 16 11  1  0  0  0  0
  2 17  1  0  0  0  0
 17 18  1  0  0  0  0
 18 19  2  0  0  0  0
 19 20  1  0  0  0  0
 20 21  2  0  0  0  0
 21 22  1  0  0  0  0
 22 23  2  0  0  0  0
 23 18  1  0  0  0  0
 19 24  1  0  0  0  0
 24 25  1  0  0  0  0
 25 26  1  0  0  0  0
 26 27  2  0  0  0  0
 25 28  2  0  0  0  0
 16 29  1  0  0  0  0
 12 30  1  0  0  0  0
 15 31  1  0  0  0  0
 13 32  1  0  0  0  0
 32 33  1  0  0  0  0
 23 34  1  0  0  0  0
 31 35  1  0  0  0  0
M  END
>  <Mol_ID> (524)
2987

>  <Formula> (524)
C26H22Cl2N4O3

>  <MolWeight> (524)
509.38388

>  <Cat> (524)
S7819

>  <Name> (524)
BLU9931

>  <Synonyms> (524)
N/A

>  <Target> (524)
FGFR

>  <Form> (524)
Free Base

>  <CAS> (524)
1538604-68-0

>  <URL> (524)
http://www.selleckchem.com/products/blu9931.html

$$$$
TP-0903.cdx
csChFnd80/05071909292D

 35 38  0  0  0  0  0  0  0  0999 V2000
    6.0622    2.1000    0.0000 C   0  0  0  0  0  0  0  0  0  0  0  0
    6.0622    0.7000    0.0000 N   0  0  0  0  0  0  0  0  0  0  0  0
    7.2746    0.0000    0.0000 C   0  0  0  0  0  0  0  0  0  0  0  0
    8.4870    0.7000    0.0000 C   0  0  0  0  0  0  0  0  0  0  0  0
    8.4870    2.1000    0.0000 C   0  0  0  0  0  0  0  0  0  0  0  0
    7.2746    2.8000    0.0000 N   0  0  0  0  0  0  0  0  0  0  0  0
    4.8497    2.8000    0.0000 N   0  0  0  0  0  0  0  0  0  0  0  0
    4.8497    4.2000    0.0000 C   0  0  0  0  0  0  0  0  0  0  0  0
    6.0622    4.9000    0.0000 C   0  0  0  0  0  0  0  0  0  0  0  0
    6.0622    6.3000    0.0000 C   0  0  0  0  0  0  0  0  0  0  0  0
    4.8497    7.0000    0.0000 C   0  0  0  0  0  0  0  0  0  0  0  0
    3.6373    6.3000    0.0000 C   0  0  0  0  0  0  0  0  0  0  0  0
    3.6373    4.9000    0.0000 C   0  0  0  0  0  0  0  0  0  0  0  0
    4.8497    8.4000    0.0000 C   0  0  0  0  0  0  0  0  0  0  0  0
    3.6373    9.1000    0.0000 N   0  0  0  0  0  0  0  0  0  0  0  0
    3.6373   10.5000    0.0000 C   0  0  0  0  0  0  0  0  0  0  0  0
    2.4249   11.2000    0.0000 C   0  0  0  0  0  0  0  0  0  0  0  0
    1.2124   10.5000    0.0000 N   0  0  0  0  0  0  0  0  0  0  0  0
    1.2124    9.1000    0.0000 C   0  0  0  0  0  0  0  0  0  0  0  0
    2.4249    8.4000    0.0000 C   0  0  0  0  0  0  0  0  0  0  0  0
    0.0000   11.2000    0.0000 C   0  0  0  0  0  0  0  0  0  0  0  0
    9.6995    2.8000    0.0000 N   0  0  0  0  0  0  0  0  0  0  0  0
   10.9119    2.1000    0.0000 C   0  0  0  0  0  0  0  0  0  0  0  0
    9.6995    0.0000    0.0000 Cl  0  0  0  0  0  0  0  0  0  0  0  0
   10.9119    0.7000    0.0000 C   0  0  0  0  0  0  0  0  0  0  0  0
   12.1244    0.0000    0.0000 C   0  0  0  0  0  0  0  0  0  0  0  0
   13.3368    0.7000    0.0000 C   0  0  0  0  0  0  0  0  0  0  0  0
   13.3368    2.1000    0.0000 C   0  0  0  0  0  0  0  0  0  0  0  0
   12.1244    2.8000    0.0000 C   0  0  0  0  0  0  0  0  0  0  0  0
   12.1244    4.2000    0.0000 S   0  0  0  0  0  0  0  0  0  0  0  0
   10.9119    4.9000    0.0000 O   0  0  0  0  0  0  0  0  0  0  0  0
   13.3368    4.9000    0.0000 N   0  0  0  0  0  0  0  0  0  0  0  0
   13.3368    3.5000    0.0000 O   0  0  0  0  0  0  0  0  0  0  0  0
   14.5492    4.2000    0.0000 C   0  0  0  0  0  0  0  0  0  0  0  0
   13.3368    6.3000    0.0000 C   0  0  0  0  0  0  0  0  0  0  0  0
  1  2  2  0  0  0  0
  2  3  1  0  0  0  0
  3  4  2  0  0  0  0
  4  5  1  0  0  0  0
  5  6  2  0  0  0  0
  6  1  1  0  0  0  0
  1  7  1  0  0  0  0
  7  8  1  0  0  0  0
  8  9  2  0  0  0  0
  9 10  1  0  0  0  0
 10 11  2  0  0  0  0
 11 12  1  0  0  0  0
 12 13  2  0  0  0  0
 13  8  1  0  0  0  0
 11 14  1  0  0  0  0
 14 15  1  0  0  0  0
 15 16  1  0  0  0  0
 16 17  1  0  0  0  0
 17 18  1  0  0  0  0
 18 19  1  0  0  0  0
 19 20  1  0  0  0  0
 20 15  1  0  0  0  0
 18 21  1  0  0  0  0
  5 22  1  0  0  0  0
 22 23  1  0  0  0  0
  4 24  1  0  0  0  0
 23 25  2  0  0  0  0
 25 26  1  0  0  0  0
 26 27  2  0  0  0  0
 27 28  1  0  0  0  0
 28 29  2  0  0  0  0
 29 23  1  0  0  0  0
 29 30  1  0  0  0  0
 30 31  2  0  0  0  0
 30 32  1  0  0  0  0
 30 33  2  0  0  0  0
 32 34  1  0  0  0  0
 32 35  1  0  0  0  0
M  END
>  <Mol_ID> (525)
2989

>  <Formula> (525)
C24H30ClN7O2S

>  <MolWeight> (525)
516.0587

>  <Cat> (525)
S7846

>  <Name> (525)
TP-0903

>  <Synonyms> (525)
N/A

>  <Target> (525)
TAM Receptor

>  <Form> (525)
Free Base

>  <CAS> (525)
1341200-45-0

>  <URL> (525)
http://www.selleckchem.com/products/tp-0903.html

$$$$
FLLL32.cdx
csChFnd80/05071909292D

 34 36  0  0  0  0  0  0  0  0999 V2000
    8.4786    2.1000    0.0000 C   0  0  0  0  0  0  0  0  0  0  0  0
    8.4786    0.7000    0.0000 C   0  0  0  0  0  0  0  0  0  0  0  0
    9.6911    0.0000    0.0000 C   0  0  0  0  0  0  0  0  0  0  0  0
   10.9035    0.7000    0.0000 C   0  0  0  0  0  0  0  0  0  0  0  0
   10.9035    2.1000    0.0000 C   0  0  0  0  0  0  0  0  0  0  0  0
    9.6911    2.8000    0.0000 C   0  0  0  0  0  0  0  0  0  0  0  0
    8.4786    3.5000    0.0000 C   0  0  0  0  0  0  0  0  0  0  0  0
   10.9035    3.5000    0.0000 C   0  0  0  0  0  0  0  0  0  0  0  0
   12.1159    2.8000    0.0000 C   0  0  0  0  0  0  0  0  0  0  0  0
   13.3284    3.5000    0.0000 C   0  0  0  0  0  0  0  0  0  0  0  0
   14.5408    2.8000    0.0000 C   0  0  0  0  0  0  0  0  0  0  0  0
   10.9035    4.9000    0.0000 O   0  0  0  0  0  0  0  0  0  0  0  0
   14.5408    1.4000    0.0000 C   0  0  0  0  0  0  0  0  0  0  0  0
   15.7532    0.7000    0.0000 C   0  0  0  0  0  0  0  0  0  0  0  0
   16.9657    1.4000    0.0000 C   0  0  0  0  0  0  0  0  0  0  0  0
   16.9657    2.8000    0.0000 C   0  0  0  0  0  0  0  0  0  0  0  0
   15.7532    3.5000    0.0000 C   0  0  0  0  0  0  0  0  0  0  0  0
   18.1781    3.5000    0.0000 O   0  0  0  0  0  0  0  0  0  0  0  0
   19.3905    2.8000    0.0000 C   0  0  0  0  0  0  0  0  0  0  0  0
   18.1781    0.7000    0.0000 O   0  0  0  0  0  0  0  0  0  0  0  0
   19.3905    1.4000    0.0000 C   0  0  0  0  0  0  0  0  0  0  0  0
    7.2662    2.8000    0.0000 C   0  0  0  0  0  0  0  0  0  0  0  0
    6.0538    3.5000    0.0000 C   0  0  0  0  0  0  0  0  0  0  0  0
    8.4786    4.9000    0.0000 O   0  0  0  0  0  0  0  0  0  0  0  0
    4.8413    2.8000    0.0000 C   0  0  0  0  0  0  0  0  0  0  0  0
    3.6289    3.5000    0.0000 C   0  0  0  0  0  0  0  0  0  0  0  0
    2.4165    2.8000    0.0000 C   0  0  0  0  0  0  0  0  0  0  0  0
    2.4165    1.4000    0.0000 C   0  0  0  0  0  0  0  0  0  0  0  0
    3.6289    0.7000    0.0000 C   0  0  0  0  0  0  0  0  0  0  0  0
    4.8413    1.4000    0.0000 C   0  0  0  0  0  0  0  0  0  0  0  0
    1.2082    3.4976    0.0000 O   0  0  0  0  0  0  0  0  0  0  0  0
    0.0000    2.8000    0.0000 C   0  0  0  0  0  0  0  0  0  0  0  0
    1.2082    0.7024    0.0000 O   0  0  0  0  0  0  0  0  0  0  0  0
    0.0000    1.4000    0.0000 C   0  0  0  0  0  0  0  0  0  0  0  0
  1  2  1  0  0  0  0
  2  3  1  0  0  0  0
  3  4  1  0  0  0  0
  4  5  1  0  0  0  0
  5  6  1  0  0  0  0
  6  1  1  0  0  0  0
  6  7  1  0  0  0  0
  6  8  1  0  0  0  0
  8  9  1  0  0  0  0
  9 10  2  0  0  0  0
 10 11  1  0  0  0  0
  8 12  2  0  0  0  0
 11 13  2  0  0  0  0
 13 14  1  0  0  0  0
 14 15  2  0  0  0  0
 15 16  1  0  0  0  0
 16 17  2  0  0  0  0
 17 11  1  0  0  0  0
 16 18  1  0  0  0  0
 18 19  1  0  0  0  0
 15 20  1  0  0  0  0
 20 21  1  0  0  0  0
  7 22  1  0  0  0  0
 22 23  2  0  0  0  0
  7 24  2  0  0  0  0
 23 25  1  0  0  0  0
 25 26  2  0  0  0  0
 26 27  1  0  0  0  0
 27 28  2  0  0  0  0
 28 29  1  0  0  0  0
 29 30  2  0  0  0  0
 30 25  1  0  0  0  0
 27 31  1  0  0  0  0
 31 32  1  0  0  0  0
 28 33  1  0  0  0  0
 33 34  1  0  0  0  0
M  END
>  <Mol_ID> (526)
2994

>  <Formula> (526)
C28H32O6

>  <MolWeight> (526)
464.55008

>  <Cat> (526)
S7259

>  <Name> (526)
FLLL32

>  <Synonyms> (526)
N/A

>  <Target> (526)
JAK

>  <Form> (526)
Free Base

>  <CAS> (526)
1226895-15-3

>  <URL> (526)
http://www.selleckchem.com/products/flll32.html

$$$$
GDC-0032 (RG-7604).cdx
csChFnd80/05071909292D

 34 38  0  0  0  0  0  0  0  0999 V2000
    6.2318    8.4402    0.0000 C   0  0  0  0  0  0  0  0  0  0  0  0
    6.2318    7.0402    0.0000 C   0  0  0  0  0  0  0  0  0  0  0  0
    7.4443    6.3402    0.0000 C   0  0  0  0  0  0  0  0  0  0  0  0
    8.6567    7.0402    0.0000 C   0  0  0  0  0  0  0  0  0  0  0  0
    8.6567    8.4402    0.0000 C   0  0  0  0  0  0  0  0  0  0  0  0
    7.4443    9.1402    0.0000 C   0  0  0  0  0  0  0  0  0  0  0  0
    9.7513    6.1673    0.0000 C   0  0  0  0  0  0  0  0  0  0  0  0
   11.1162    6.4788    0.0000 N   0  0  0  0  0  0  0  0  0  0  0  0
   11.7236    7.7402    0.0000 C   0  0  0  0  0  0  0  0  0  0  0  0
   11.1162    9.0015    0.0000 C   0  0  0  0  0  0  0  0  0  0  0  0
    9.7513    9.3130    0.0000 O   0  0  0  0  0  0  0  0  0  0  0  0
    9.6258    4.7729    0.0000 N   0  0  0  0  0  0  0  0  0  0  0  0
   10.9131    4.2227    0.0000 C   0  0  0  0  0  0  0  0  0  0  0  0
   11.8342    5.2770    0.0000 C   0  0  0  0  0  0  0  0  0  0  0  0
   11.2236    2.8625    0.0000 C   0  0  0  0  0  0  0  0  0  0  0  0
    5.0236    9.1377    0.0000 C   0  0  0  0  0  0  0  0  0  0  0  0
    4.8773   10.5301    0.0000 C   0  0  0  0  0  0  0  0  0  0  0  0
    3.5079   10.8211    0.0000 N   0  0  0  0  0  0  0  0  0  0  0  0
    2.8079    9.6087    0.0000 N   0  0  0  0  0  0  0  0  0  0  0  0
    3.7446    8.5683    0.0000 C   0  0  0  0  0  0  0  0  0  0  0  0
   10.3024    1.8082    0.0000 N   0  0  0  0  0  0  0  0  0  0  0  0
   11.0205    0.6064    0.0000 N   0  0  0  0  0  0  0  0  0  0  0  0
   12.3854    0.9179    0.0000 C   0  0  0  0  0  0  0  0  0  0  0  0
   12.5109    2.3123    0.0000 N   0  0  0  0  0  0  0  0  0  0  0  0
    8.9129    1.9333    0.0000 C   0  0  0  0  0  0  0  0  0  0  0  0
   13.4360    0.0000    0.0000 C   0  0  0  0  0  0  0  0  0  0  0  0
    1.4204    9.4629    0.0000 C   0  0  0  0  0  0  0  0  0  0  0  0
    1.2745   10.8504    0.0000 C   0  0  0  0  0  0  0  0  0  0  0  0
    0.0329    9.3170    0.0000 C   0  0  0  0  0  0  0  0  0  0  0  0
    1.5662    8.0754    0.0000 C   0  0  0  0  0  0  0  0  0  0  0  0
    2.4032   11.6704    0.0000 O   0  0  0  0  0  0  0  0  0  0  0  0
    0.0000   11.4178    0.0000 N   0  0  0  0  0  0  0  0  0  0  0  0
    8.0663    0.8244    0.0000 C   0  0  0  0  0  0  0  0  0  0  0  0
    8.3511    3.2103    0.0000 C   0  0  0  0  0  0  0  0  0  0  0  0
  1  2  2  0  0  0  0
  2  3  1  0  0  0  0
  3  4  2  0  0  0  0
  4  5  1  0  0  0  0
  5  6  2  0  0  0  0
  6  1  1  0  0  0  0
  4  7  1  0  0  0  0
  7  8  1  0  0  0  0
  8  9  1  0  0  0  0
  9 10  1  0  0  0  0
 10 11  1  0  0  0  0
 11  5  1  0  0  0  0
  7 12  2  0  0  0  0
 12 13  1  0  0  0  0
 13 14  2  0  0  0  0
 14  8  1  0  0  0  0
 13 15  1  0  0  0  0
  1 16  1  0  0  0  0
 16 17  1  0  0  0  0
 17 18  2  0  0  0  0
 18 19  1  0  0  0  0
 19 20  1  0  0  0  0
 20 16  2  0  0  0  0
 15 21  1  0  0  0  0
 21 22  1  0  0  0  0
 22 23  2  0  0  0  0
 23 24  1  0  0  0  0
 24 15  2  0  0  0  0
 21 25  1  0  0  0  0
 23 26  1  0  0  0  0
 19 27  1  0  0  0  0
 27 28  1  0  0  0  0
 27 29  1  0  0  0  0
 27 30  1  0  0  0  0
 28 31  2  0  0  0  0
 28 32  1  0  0  0  0
 25 33  1  0  0  0  0
 25 34  1  0  0  0  0
M  END
>  <Mol_ID> (527)
2998

>  <Formula> (527)
C24H28N8O2

>  <MolWeight> (527)
460.53152

>  <Cat> (527)
S7103

>  <Name> (527)
GDC-0032

>  <Synonyms> (527)
RG7604

>  <Target> (527)
PI3K

>  <Form> (527)
Free Base

>  <CAS> (527)
1282512-48-4

>  <URL> (527)
http://www.selleckchem.com/products/gdc-0032.html

$$$$
ONO-4059.cdx
csChFnd80/05071909292D

 34 38  0  0  0  0  0  0  0  0999 V2000
    0.0000    6.3990    0.0000 N   0  0  0  0  0  0  0  0  0  0  0  0
    0.0000    4.9990    0.0000 C   0  0  0  0  0  0  0  0  0  0  0  0
    1.2124    4.2990    0.0000 N   0  0  0  0  0  0  0  0  0  0  0  0
    2.4249    4.9990    0.0000 C   0  0  0  0  0  0  0  0  0  0  0  0
    2.4249    6.3990    0.0000 C   0  0  0  0  0  0  0  0  0  0  0  0
    1.2124    7.0990    0.0000 C   0  0  0  0  0  0  0  0  0  0  0  0
    3.7564    4.5663    0.0000 N   0  0  0  0  0  0  0  0  0  0  0  0
    4.5793    5.6990    0.0000 C   0  0  0  0  0  0  0  0  0  0  0  0
    3.7564    6.8316    0.0000 N   0  0  0  0  0  0  0  0  0  0  0  0
    4.1890    8.1631    0.0000 C   0  0  0  0  0  0  0  0  0  0  0  0
    5.5584    8.4541    0.0000 C   0  0  0  0  0  0  0  0  0  0  0  0
    5.9910    9.7856    0.0000 C   0  0  0  0  0  0  0  0  0  0  0  0
    5.0542   10.8260    0.0000 C   0  0  0  0  0  0  0  0  0  0  0  0
    3.6848   10.5349    0.0000 C   0  0  0  0  0  0  0  0  0  0  0  0
    3.2522    9.2035    0.0000 C   0  0  0  0  0  0  0  0  0  0  0  0
    5.4868   12.1575    0.0000 O   0  0  0  0  0  0  0  0  0  0  0  0
    6.8563   12.4486    0.0000 C   0  0  0  0  0  0  0  0  0  0  0  0
    7.7930   11.4082    0.0000 C   0  0  0  0  0  0  0  0  0  0  0  0
    9.1624   11.6992    0.0000 C   0  0  0  0  0  0  0  0  0  0  0  0
    9.5951   13.0307    0.0000 C   0  0  0  0  0  0  0  0  0  0  0  0
    8.6583   14.0711    0.0000 C   0  0  0  0  0  0  0  0  0  0  0  0
    7.2889   13.7801    0.0000 C   0  0  0  0  0  0  0  0  0  0  0  0
    1.2124    8.4990    0.0000 N   0  0  0  0  0  0  0  0  0  0  0  0
    4.1875    3.2395    0.0000 C   0  0  1  0  0  0  0  0  0  0  0  0
    3.2507    2.1991    0.0000 C   0  0  0  0  0  0  0  0  0  0  0  0
    3.6833    0.8676    0.0000 C   0  0  0  0  0  0  0  0  0  0  0  0
    5.0527    0.5765    0.0000 C   0  0  0  0  0  0  0  0  0  0  0  0
    5.9895    1.6169    0.0000 N   0  0  0  0  0  0  0  0  0  0  0  0
    5.5569    2.9484    0.0000 C   0  0  0  0  0  0  0  0  0  0  0  0
    7.3542    1.3269    0.0000 C   0  0  0  0  0  0  0  0  0  0  0  0
    8.2877    2.3636    0.0000 C   0  0  0  0  0  0  0  0  0  0  0  0
    9.6523    2.0736    0.0000 C   0  0  0  0  0  0  0  0  0  0  0  0
    7.7853    0.0000    0.0000 O   0  0  0  0  0  0  0  0  0  0  0  0
    5.9744    5.6990    0.0000 O   0  0  0  0  0  0  0  0  0  0  0  0
  1  2  2  0  0  0  0
  2  3  1  0  0  0  0
  3  4  2  0  0  0  0
  4  5  1  0  0  0  0
  5  6  2  0  0  0  0
  6  1  1  0  0  0  0
  4  7  1  0  0  0  0
  7  8  1  0  0  0  0
  8  9  1  0  0  0  0
  9  5  1  0  0  0  0
  9 10  1  0  0  0  0
 10 11  2  0  0  0  0
 11 12  1  0  0  0  0
 12 13  2  0  0  0  0
 13 14  1  0  0  0  0
 14 15  2  0  0  0  0
 15 10  1  0  0  0  0
 13 16  1  0  0  0  0
 16 17  1  0  0  0  0
 17 18  2  0  0  0  0
 18 19  1  0  0  0  0
 19 20  2  0  0  0  0
 20 21  1  0  0  0  0
 21 22  2  0  0  0  0
 22 17  1  0  0  0  0
  6 23  1  0  0  0  0
  7 24  1  1  0  0  0
 24 25  1  0  0  0  0
 25 26  1  0  0  0  0
 26 27  1  0  0  0  0
 27 28  1  0  0  0  0
 28 29  1  0  0  0  0
 29 24  1  0  0  0  0
 28 30  1  0  0  0  0
 30 31  1  0  0  0  0
 31 32  2  0  0  0  0
 30 33  2  0  0  0  0
  8 34  2  0  0  0  0
M  END
>  <Mol_ID> (528)
3000

>  <Formula> (528)
C25H24N6O3

>  <MolWeight> (528)
456.49646

>  <Cat> (528)
S7877

>  <Name> (528)
ONO-4059

>  <Synonyms> (528)
ONO-WG-307

>  <Target> (528)
BTK

>  <Form> (528)
Free Base

>  <CAS> (528)
1351635-67-0

>  <URL> (528)
http://www.selleckchem.com/products/ono-4059.html

$$$$
SBI-0206965.cdx
csChFnd80/05071909292D

 31 33  0  0  0  0  0  0  0  0999 V2000
    3.6373    4.2000    0.0000 C   0  0  0  0  0  0  0  0  0  0  0  0
    3.6373    2.8000    0.0000 C   0  0  0  0  0  0  0  0  0  0  0  0
    4.8497    2.1000    0.0000 C   0  0  0  0  0  0  0  0  0  0  0  0
    6.0622    2.8000    0.0000 C   0  0  0  0  0  0  0  0  0  0  0  0
    6.0622    4.2000    0.0000 C   0  0  0  0  0  0  0  0  0  0  0  0
    4.8497    4.9000    0.0000 C   0  0  0  0  0  0  0  0  0  0  0  0
    4.8497    6.3000    0.0000 O   0  0  0  0  0  0  0  0  0  0  0  0
    6.0622    7.0000    0.0000 C   0  0  0  0  0  0  0  0  0  0  0  0
    7.2746    6.3000    0.0000 N   0  0  0  0  0  0  0  0  0  0  0  0
    8.4870    7.0000    0.0000 C   0  0  0  0  0  0  0  0  0  0  0  0
    8.4870    8.4000    0.0000 N   0  0  0  0  0  0  0  0  0  0  0  0
    7.2746    9.1000    0.0000 C   0  0  0  0  0  0  0  0  0  0  0  0
    6.0622    8.4000    0.0000 C   0  0  0  0  0  0  0  0  0  0  0  0
    4.8497    9.1000    0.0000 Br  0  0  0  0  0  0  0  0  0  0  0  0
    9.6995    6.3000    0.0000 N   0  0  0  0  0  0  0  0  0  0  0  0
    9.6995    4.9000    0.0000 C   0  0  0  0  0  0  0  0  0  0  0  0
    8.4870    4.2000    0.0000 C   0  0  0  0  0  0  0  0  0  0  0  0
    8.4870    2.8000    0.0000 C   0  0  0  0  0  0  0  0  0  0  0  0
    9.6995    2.1000    0.0000 C   0  0  0  0  0  0  0  0  0  0  0  0
   10.9119    2.8000    0.0000 C   0  0  0  0  0  0  0  0  0  0  0  0
   10.9119    4.2000    0.0000 C   0  0  0  0  0  0  0  0  0  0  0  0
    7.2746    2.1000    0.0000 O   0  0  0  0  0  0  0  0  0  0  0  0
    7.2746    0.7000    0.0000 C   0  0  0  0  0  0  0  0  0  0  0  0
    9.6995    0.7000    0.0000 O   0  0  0  0  0  0  0  0  0  0  0  0
   10.9119    0.0000    0.0000 C   0  0  0  0  0  0  0  0  0  0  0  0
   12.1244    2.1000    0.0000 O   0  0  0  0  0  0  0  0  0  0  0  0
   13.3368    2.8000    0.0000 C   0  0  0  0  0  0  0  0  0  0  0  0
    2.4249    4.9000    0.0000 C   0  0  0  0  0  0  0  0  0  0  0  0
    1.2124    4.2000    0.0000 N   0  0  0  0  0  0  0  0  0  0  0  0
    0.0000    4.9000    0.0000 C   0  0  0  0  0  0  0  0  0  0  0  0
    2.4249    6.3000    0.0000 O   0  0  0  0  0  0  0  0  0  0  0  0
  1  2  2  0  0  0  0
  2  3  1  0  0  0  0
  3  4  2  0  0  0  0
  4  5  1  0  0  0  0
  5  6  2  0  0  0  0
  6  1  1  0  0  0  0
  6  7  1  0  0  0  0
  7  8  1  0  0  0  0
  8  9  2  0  0  0  0
  9 10  1  0  0  0  0
 10 11  2  0  0  0  0
 11 12  1  0  0  0  0
 12 13  2  0  0  0  0
 13  8  1  0  0  0  0
 13 14  1  0  0  0  0
 10 15  1  0  0  0  0
 15 16  1  0  0  0  0
 16 17  2  0  0  0  0
 17 18  1  0  0  0  0
 18 19  2  0  0  0  0
 19 20  1  0  0  0  0
 20 21  2  0  0  0  0
 21 16  1  0  0  0  0
 18 22  1  0  0  0  0
 22 23  1  0  0  0  0
 19 24  1  0  0  0  0
 24 25  1  0  0  0  0
 20 26  1  0  0  0  0
 26 27  1  0  0  0  0
  1 28  1  0  0  0  0
 28 29  1  0  0  0  0
 29 30  1  0  0  0  0
 28 31  2  0  0  0  0
M  END
>  <Mol_ID> (529)
3010

>  <Formula> (529)
C21H21BrN4O5

>  <MolWeight> (529)
489.31924

>  <Cat> (529)
S7885

>  <Name> (529)
SBI-0206965

>  <Synonyms> (529)
N/A

>  <Target> (529)
Autophagy

>  <Form> (529)
Free Base

>  <CAS> (529)
no

>  <URL> (529)
http://www.selleckchem.com/products/sbi-0206965.html

$$$$
SB239063.cdx
csChFnd80/05071909292D

 27 30  0  0  0  0  0  0  0  0999 V2000
    1.2124    2.1000    0.0000 C   0  0  0  0  0  0  0  0  0  0  0  0
    1.2124    0.7000    0.0000 C   0  0  0  0  0  0  0  0  0  0  0  0
    2.4249    0.0000    0.0000 C   0  0  0  0  0  0  0  0  0  0  0  0
    3.6373    0.7000    0.0000 C   0  0  0  0  0  0  0  0  0  0  0  0
    3.6373    2.1000    0.0000 C   0  0  0  0  0  0  0  0  0  0  0  0
    2.4249    2.8000    0.0000 C   0  0  0  0  0  0  0  0  0  0  0  0
    4.8497    2.8000    0.0000 C   0  0  0  0  0  0  0  0  0  0  0  0
    0.0000    0.0000    0.0000 F   0  0  0  0  0  0  0  0  0  0  0  0
    6.1287    2.2306    0.0000 N   0  0  0  0  0  0  0  0  0  0  0  0
    7.0655    3.2710    0.0000 C   0  0  0  0  0  0  0  0  0  0  0  0
    6.3655    4.4834    0.0000 N   0  0  0  0  0  0  0  0  0  0  0  0
    4.9961    4.1923    0.0000 C   0  0  0  0  0  0  0  0  0  0  0  0
    6.7278    5.8357    0.0000 C   0  0  1  0  0  0  0  0  0  0  0  0
    8.0801    6.1981    0.0000 C   0  0  0  0  0  0  0  0  0  0  0  0
    8.4425    7.5503    0.0000 C   0  0  0  0  0  0  0  0  0  0  0  0
    7.4525    8.5403    0.0000 C   0  0  1  0  0  0  0  0  0  0  0  0
    6.1002    8.1779    0.0000 C   0  0  0  0  0  0  0  0  0  0  0  0
    5.7379    6.8257    0.0000 C   0  0  0  0  0  0  0  0  0  0  0  0
    7.8149    9.8926    0.0000 O   0  0  0  0  0  0  0  0  0  0  0  0
    3.9557    5.1291    0.0000 C   0  0  0  0  0  0  0  0  0  0  0  0
    4.2468    6.4985    0.0000 N   0  0  0  0  0  0  0  0  0  0  0  0
    3.2064    7.4353    0.0000 C   0  0  0  0  0  0  0  0  0  0  0  0
    1.8749    7.0027    0.0000 N   0  0  0  0  0  0  0  0  0  0  0  0
    1.5838    5.6333    0.0000 C   0  0  0  0  0  0  0  0  0  0  0  0
    2.6242    4.6965    0.0000 C   0  0  0  0  0  0  0  0  0  0  0  0
    3.4974    8.8047    0.0000 O   0  0  0  0  0  0  0  0  0  0  0  0
    2.4570    9.7415    0.0000 C   0  0  0  0  0  0  0  0  0  0  0  0
  1  2  2  0  0  0  0
  2  3  1  0  0  0  0
  3  4  2  0  0  0  0
  4  5  1  0  0  0  0
  5  6  2  0  0  0  0
  6  1  1  0  0  0  0
  5  7  1  0  0  0  0
  2  8  1  0  0  0  0
  7  9  1  0  0  0  0
  9 10  2  0  0  0  0
 10 11  1  0  0  0  0
 11 12  1  0  0  0  0
 12  7  2  0  0  0  0
 13 11  1  6  0  0  0
 13 14  1  0  0  0  0
 14 15  1  0  0  0  0
 15 16  1  0  0  0  0
 16 17  1  0  0  0  0
 17 18  1  0  0  0  0
 18 13  1  0  0  0  0
 16 19  1  1  0  0  0
 12 20  1  0  0  0  0
 20 21  2  0  0  0  0
 21 22  1  0  0  0  0
 22 23  2  0  0  0  0
 23 24  1  0  0  0  0
 24 25  2  0  0  0  0
 25 20  1  0  0  0  0
 22 26  1  0  0  0  0
 26 27  1  0  0  0  0
M  END
>  <Mol_ID> (530)
3012

>  <Formula> (530)
C20H21FN4O2

>  <MolWeight> (530)
368.4047432

>  <Cat> (530)
S7741

>  <Name> (530)
SB239063

>  <Synonyms> (530)
N/A

>  <Target> (530)
p38 MAPK

>  <Form> (530)
Free Base

>  <CAS> (530)
193551-21-2

>  <URL> (530)
http://www.selleckchem.com/products/sb239063.html

$$$$
AZD6738.cdx
csChFnd80/05071909292D

 29 33  0  0  0  0  0  0  0  0999 V2000
    3.6373    4.2000    0.0000 C   0  0  0  0  0  0  0  0  0  0  0  0
    3.6373    2.8000    0.0000 C   0  0  0  0  0  0  0  0  0  0  0  0
    4.8497    2.1000    0.0000 N   0  0  0  0  0  0  0  0  0  0  0  0
    6.0622    2.8000    0.0000 C   0  0  0  0  0  0  0  0  0  0  0  0
    6.0622    4.2000    0.0000 N   0  0  0  0  0  0  0  0  0  0  0  0
    4.8497    4.9000    0.0000 C   0  0  0  0  0  0  0  0  0  0  0  0
    4.8497    6.3000    0.0000 N   0  0  0  0  0  0  0  0  0  0  0  0
    6.0622    7.0000    0.0000 C   0  0  1  0  0  0  0  0  0  0  0  0
    6.0622    8.4000    0.0000 C   0  0  0  0  0  0  0  0  0  0  0  0
    4.8497    9.1000    0.0000 O   0  0  0  0  0  0  0  0  0  0  0  0
    3.6373    8.4000    0.0000 C   0  0  0  0  0  0  0  0  0  0  0  0
    3.6373    7.0000    0.0000 C   0  0  0  0  0  0  0  0  0  0  0  0
    7.2746    6.3000    0.0000 C   0  0  0  0  0  0  0  0  0  0  0  0
    2.4249    2.1000    0.0000 C   0  0  0  0  0  0  0  0  0  0  0  0
    1.2124    2.8000    0.0000 S   0  0  1  0  0  0  0  0  0  0  0  0
    1.7249    0.8876    0.0000 C   0  0  0  0  0  0  0  0  0  0  0  0
    3.1249    0.8876    0.0000 C   0  0  0  0  0  0  0  0  0  0  0  0
    0.0000    2.1000    0.0000 C   0  0  0  0  0  0  0  0  0  0  0  0
    1.9864    3.9666    0.0000 O   0  0  0  0  0  0  0  0  0  0  0  0
    0.2537    3.8202    0.0000 N   0  0  0  0  0  0  0  0  0  0  0  0
    7.2746    2.1000    0.0000 C   0  0  0  0  0  0  0  0  0  0  0  0
    7.2746    0.7000    0.0000 C   0  0  0  0  0  0  0  0  0  0  0  0
    8.4870    0.0000    0.0000 C   0  0  0  0  0  0  0  0  0  0  0  0
    9.6995    0.7000    0.0000 N   0  0  0  0  0  0  0  0  0  0  0  0
    9.6995    2.1000    0.0000 C   0  0  0  0  0  0  0  0  0  0  0  0
    8.4870    2.8000    0.0000 C   0  0  0  0  0  0  0  0  0  0  0  0
   10.7399    3.0368    0.0000 N   0  0  0  0  0  0  0  0  0  0  0  0
   10.1705    4.3157    0.0000 C   0  0  0  0  0  0  0  0  0  0  0  0
    8.7781    4.1694    0.0000 C   0  0  0  0  0  0  0  0  0  0  0  0
  1  2  2  0  0  0  0
  2  3  1  0  0  0  0
  3  4  2  0  0  0  0
  4  5  1  0  0  0  0
  5  6  2  0  0  0  0
  6  1  1  0  0  0  0
  6  7  1  0  0  0  0
  7  8  1  0  0  0  0
  8  9  1  0  0  0  0
  9 10  1  0  0  0  0
 10 11  1  0  0  0  0
 11 12  1  0  0  0  0
 12  7  1  0  0  0  0
  8 13  1  1  0  0  0
  2 14  1  0  0  0  0
 15 14  1  6  0  0  0
 14 16  1  0  0  0  0
 16 17  1  0  0  0  0
 17 14  1  0  0  0  0
 15 18  1  1  0  0  0
 15 19  2  0  0  0  0
 15 20  2  0  0  0  0
  4 21  1  0  0  0  0
 21 22  1  0  0  0  0
 22 23  2  0  0  0  0
 23 24  1  0  0  0  0
 24 25  2  0  0  0  0
 25 26  1  0  0  0  0
 26 21  2  0  0  0  0
 25 27  1  0  0  0  0
 27 28  1  0  0  0  0
 28 29  2  0  0  0  0
 29 26  1  0  0  0  0
M  END
>  <Mol_ID> (531)
3013

>  <Formula> (531)
C20H24N6O2S

>  <MolWeight> (531)
412.50856

>  <Cat> (531)
S7693

>  <Name> (531)
AZD6738

>  <Synonyms> (531)
N/A

>  <Target> (531)
ATM/ATR

>  <Form> (531)
Free Base

>  <CAS> (531)
1352226-88-0

>  <URL> (531)
http://www.selleckchem.com/products/azd6738.html

$$$$

csChFnd80/05071909292D

 22 24  0  0  0  0  0  0  0  0999 V2000
    2.0938    2.8590    0.0000 C   0  0  0  0  0  0  0  0  0  0  0  0
    2.5256    4.1681    0.0000 C   0  0  0  0  0  0  0  0  0  0  0  0
    0.6941    2.8590    0.0000 C   0  0  0  0  0  0  0  0  0  0  0  0
    2.7865    1.6592    0.0000 C   0  0  0  0  0  0  0  0  0  0  0  0
    3.8637    4.5999    0.0000 C   0  0  0  0  0  0  0  0  0  0  0  0
    1.3716    5.0038    0.0000 C   0  0  0  0  0  0  0  0  0  0  0  0
    0.0000    1.6568    0.0000 C   0  0  0  0  0  0  0  0  0  0  0  0
    0.2467    4.1704    0.0000 N   0  0  0  0  0  0  0  0  0  0  0  0
    2.0946    0.4607    0.0000 C   0  0  0  0  0  0  0  0  0  0  0  0
    5.2018    5.0316    0.0000 C   0  0  0  0  0  0  0  0  0  0  0  0
    1.3716    6.4099    0.0000 O   0  0  0  0  0  0  0  0  0  0  0  0
    0.6971    0.4493    0.0000 C   0  0  0  0  0  0  0  0  0  0  0  0
    6.2985    4.2188    0.0000 C   0  0  0  0  0  0  0  0  0  0  0  0
    5.6263    6.3468    0.0000 N   0  0  0  0  0  0  0  0  0  0  0  0
    7.4481    5.0203    0.0000 C   0  0  0  0  0  0  0  0  0  0  0  0
    6.2985    2.8129    0.0000 C   0  0  0  0  0  0  0  0  0  0  0  0
    7.0087    6.3546    0.0000 C   0  0  0  0  0  0  0  0  0  0  0  0
    8.7827    4.5776    0.0000 C   0  0  0  0  0  0  0  0  0  0  0  0
    7.5103    2.1133    0.0000 C   0  0  0  0  0  0  0  0  0  0  0  0
    7.5103    0.7039    0.0000 C   0  0  0  0  0  0  0  0  0  0  0  0
    8.7294    0.0000    0.0000 O   0  0  0  0  0  0  0  0  0  0  0  0
    6.2941    0.0017    0.0000 O   0  0  0  0  0  0  0  0  0  0  0  0
  1  2  1  0  0  0  0
  1  3  2  0  0  0  0
  1  4  1  0  0  0  0
  2  5  2  0  0  0  0
  2  6  1  0  0  0  0
  3  7  1  0  0  0  0
  3  8  1  0  0  0  0
  4  9  2  0  0  0  0
  5 10  1  0  0  0  0
  6 11  2  0  0  0  0
  6  8  1  0  0  0  0
  7 12  2  0  0  0  0
  9 12  1  0  0  0  0
 10 13  2  0  0  0  0
 10 14  1  0  0  0  0
 13 15  1  0  0  0  0
 13 16  1  0  0  0  0
 14 17  1  0  0  0  0
 15 18  1  0  0  0  0
 15 17  2  0  0  0  0
 16 19  1  0  0  0  0
 19 20  1  0  0  0  0
 20 21  1  0  0  0  0
 20 22  2  0  0  0  0
M  END
>  <Mol_ID> (533)
3016

>  <Formula> (533)
C17H16N2O3

>  <MolWeight> (533)
296.32054

>  <Cat> (533)
S7667

>  <Name> (533)
SU5402

>  <Synonyms> (533)
N/A

>  <Target> (533)
VEGFR

>  <Form> (533)
Free Base

>  <CAS> (533)
215543-92-3

>  <URL> (533)
http://www.selleckchem.com/products/su5402.html

$$$$
UNC2025.cdx
csChFnd80/05071909292D

 36 39  0  0  0  0  0  0  0  0999 V2000
    6.0411    7.1493    0.0000 N   0  0  0  0  0  0  0  0  0  0  0  0
    6.0411    5.7493    0.0000 C   0  0  0  0  0  0  0  0  0  0  0  0
    7.2536    5.0493    0.0000 N   0  0  0  0  0  0  0  0  0  0  0  0
    8.4660    5.7493    0.0000 C   0  0  0  0  0  0  0  0  0  0  0  0
    8.4660    7.1493    0.0000 C   0  0  0  0  0  0  0  0  0  0  0  0
    7.2536    7.8493    0.0000 C   0  0  0  0  0  0  0  0  0  0  0  0
    9.7975    5.3167    0.0000 N   0  0  0  0  0  0  0  0  0  0  0  0
   10.6204    6.4493    0.0000 C   0  0  0  0  0  0  0  0  0  0  0  0
    9.7975    7.5819    0.0000 C   0  0  0  0  0  0  0  0  0  0  0  0
    4.8329    5.0517    0.0000 N   0  0  0  0  0  0  0  0  0  0  0  0
    3.6247    5.7493    0.0000 C   0  0  0  0  0  0  0  0  0  0  0  0
    2.4165    5.0517    0.0000 C   0  0  0  0  0  0  0  0  0  0  0  0
    1.2082    5.7493    0.0000 C   0  0  0  0  0  0  0  0  0  0  0  0
    0.0000    5.0517    0.0000 C   0  0  0  0  0  0  0  0  0  0  0  0
   10.2286    3.9898    0.0000 C   0  0  2  0  0  0  0  0  0  0  0  0
   10.2286    8.9088    0.0000 C   0  0  0  0  0  0  0  0  0  0  0  0
   11.5980    9.1999    0.0000 C   0  0  0  0  0  0  0  0  0  0  0  0
   12.0306   10.5313    0.0000 C   0  0  0  0  0  0  0  0  0  0  0  0
   11.0939   11.5717    0.0000 C   0  0  0  0  0  0  0  0  0  0  0  0
    9.7244   11.2807    0.0000 C   0  0  0  0  0  0  0  0  0  0  0  0
    9.2918    9.9492    0.0000 C   0  0  0  0  0  0  0  0  0  0  0  0
   11.5250   12.8986    0.0000 C   0  0  0  0  0  0  0  0  0  0  0  0
   12.8896   13.1887    0.0000 N   0  0  0  0  0  0  0  0  0  0  0  0
   13.8264   12.1483    0.0000 C   0  0  0  0  0  0  0  0  0  0  0  0
   15.1958   12.4393    0.0000 C   0  0  0  0  0  0  0  0  0  0  0  0
   15.6284   13.7708    0.0000 N   0  0  0  0  0  0  0  0  0  0  0  0
   14.6917   14.8112    0.0000 C   0  0  0  0  0  0  0  0  0  0  0  0
   13.3223   14.5201    0.0000 C   0  0  0  0  0  0  0  0  0  0  0  0
   16.9931   14.0609    0.0000 C   0  0  0  0  0  0  0  0  0  0  0  0
    9.2918    2.9494    0.0000 C   0  0  0  0  0  0  0  0  0  0  0  0
    9.7244    1.6179    0.0000 C   0  0  0  0  0  0  0  0  0  0  0  0
   11.0939    1.3269    0.0000 C   0  0  2  0  0  0  0  0  0  0  0  0
   12.0306    2.3673    0.0000 C   0  0  0  0  0  0  0  0  0  0  0  0
   11.5980    3.6987    0.0000 C   0  0  0  0  0  0  0  0  0  0  0  0
   11.5250    0.0000    0.0000 O   0  0  0  0  0  0  0  0  0  0  0  0
   16.6138    8.3322    0.0000 Cl  0  0  0  0  0  0  0  0  0  0  0  0
  1  2  2  0  0  0  0
  2  3  1  0  0  0  0
  3  4  2  0  0  0  0
  4  5  1  0  0  0  0
  5  6  2  0  0  0  0
  6  1  1  0  0  0  0
  4  7  1  0  0  0  0
  7  8  1  0  0  0  0
  8  9  2  0  0  0  0
  9  5  1  0  0  0  0
  2 10  1  0  0  0  0
 10 11  1  0  0  0  0
 11 12  1  0  0  0  0
 12 13  1  0  0  0  0
 13 14  1  0  0  0  0
  7 15  1  1  0  0  0
  9 16  1  0  0  0  0
 16 17  2  0  0  0  0
 17 18  1  0  0  0  0
 18 19  2  0  0  0  0
 19 20  1  0  0  0  0
 20 21  2  0  0  0  0
 21 16  1  0  0  0  0
 19 22  1  0  0  0  0
 22 23  1  0  0  0  0
 23 24  1  0  0  0  0
 24 25  1  0  0  0  0
 25 26  1  0  0  0  0
 26 27  1  0  0  0  0
 27 28  1  0  0  0  0
 28 23  1  0  0  0  0
 26 29  1  0  0  0  0
 15 30  1  0  0  0  0
 30 31  1  0  0  0  0
 31 32  1  0  0  0  0
 32 33  1  0  0  0  0
 33 34  1  0  0  0  0
 34 15  1  0  0  0  0
 32 35  1  6  0  0  0
M  CFW  15 BOND_GSTEREO 5
M  CFW  38 BOND_GSTEREO 4
M  END
>  <Mol_ID> (534)
3018

>  <Formula> (534)
C28H41ClN6O

>  <MolWeight> (534)
513.11774

>  <Cat> (534)
S7576

>  <Name> (534)
UNC-2025

>  <Synonyms> (534)
N/A

>  <Target> (534)
TAM Receptor

>  <Form> (534)
hydrochloride salt

>  <CAS> (534)
1429881-91-3

>  <URL> (534)
http://www.selleckchem.com/products/unc-2025.html

$$$$
ONC201.cdx
csChFnd80/05071909292D

 29 33  0  0  0  0  0  0  0  0999 V2000
    7.2746    3.6157    0.0000 C   0  0  0  0  0  0  0  0  0  0  0  0
    7.2746    2.2157    0.0000 C   0  0  0  0  0  0  0  0  0  0  0  0
    8.4870    1.5157    0.0000 N   0  0  0  0  0  0  0  0  0  0  0  0
    9.6995    2.2157    0.0000 C   0  0  0  0  0  0  0  0  0  0  0  0
    9.6995    3.6157    0.0000 N   0  0  0  0  0  0  0  0  0  0  0  0
    8.4870    4.3157    0.0000 C   0  0  0  0  0  0  0  0  0  0  0  0
    6.0622    4.3157    0.0000 C   0  0  0  0  0  0  0  0  0  0  0  0
    4.8497    3.6157    0.0000 N   0  0  0  0  0  0  0  0  0  0  0  0
    6.0622    1.5157    0.0000 C   0  0  0  0  0  0  0  0  0  0  0  0
    3.6373    4.3157    0.0000 C   0  0  0  0  0  0  0  0  0  0  0  0
    2.4249    3.6157    0.0000 C   0  0  0  0  0  0  0  0  0  0  0  0
    1.2124    4.3157    0.0000 C   0  0  0  0  0  0  0  0  0  0  0  0
    0.0000    3.6157    0.0000 C   0  0  0  0  0  0  0  0  0  0  0  0
    0.0000    2.2157    0.0000 C   0  0  0  0  0  0  0  0  0  0  0  0
    1.2124    1.5157    0.0000 C   0  0  0  0  0  0  0  0  0  0  0  0
    2.4249    2.2157    0.0000 C   0  0  0  0  0  0  0  0  0  0  0  0
    4.8497    2.2157    0.0000 C   0  0  0  0  0  0  0  0  0  0  0  0
    8.4870    5.7157    0.0000 O   0  0  0  0  0  0  0  0  0  0  0  0
   10.9119    4.3157    0.0000 C   0  0  0  0  0  0  0  0  0  0  0  0
   12.1244    3.6157    0.0000 C   0  0  0  0  0  0  0  0  0  0  0  0
   12.1244    2.2157    0.0000 C   0  0  0  0  0  0  0  0  0  0  0  0
   13.3368    1.5157    0.0000 C   0  0  0  0  0  0  0  0  0  0  0  0
   14.5492    2.2157    0.0000 C   0  0  0  0  0  0  0  0  0  0  0  0
   14.5492    3.6157    0.0000 C   0  0  0  0  0  0  0  0  0  0  0  0
   13.3368    4.3157    0.0000 C   0  0  0  0  0  0  0  0  0  0  0  0
   13.3368    5.7157    0.0000 C   0  0  0  0  0  0  0  0  0  0  0  0
    8.7781    0.1463    0.0000 C   0  0  0  0  0  0  0  0  0  0  0  0
   10.1705    0.0000    0.0000 C   0  0  0  0  0  0  0  0  0  0  0  0
   10.7399    1.2790    0.0000 N   0  0  0  0  0  0  0  0  0  0  0  0
  1  2  2  0  0  0  0
  2  3  1  0  0  0  0
  3  4  1  0  0  0  0
  4  5  1  0  0  0  0
  5  6  1  0  0  0  0
  6  1  1  0  0  0  0
  1  7  1  0  0  0  0
  7  8  1  0  0  0  0
  9  2  1  0  0  0  0
  8 10  1  0  0  0  0
 10 11  1  0  0  0  0
 11 12  2  0  0  0  0
 12 13  1  0  0  0  0
 13 14  2  0  0  0  0
 14 15  1  0  0  0  0
 15 16  2  0  0  0  0
 16 11  1  0  0  0  0
  8 17  1  0  0  0  0
 17  9  1  0  0  0  0
  6 18  2  0  0  0  0
  5 19  1  0  0  0  0
 19 20  1  0  0  0  0
 20 21  2  0  0  0  0
 21 22  1  0  0  0  0
 22 23  2  0  0  0  0
 23 24  1  0  0  0  0
 24 25  2  0  0  0  0
 25 20  1  0  0  0  0
 25 26  1  0  0  0  0
  3 27  1  0  0  0  0
 27 28  1  0  0  0  0
 28 29  1  0  0  0  0
 29  4  2  0  0  0  0
M  END
>  <Mol_ID> (535)
3020

>  <Formula> (535)
C24H26N4O

>  <MolWeight> (535)
386.48944

>  <Cat> (535)
S7963

>  <Name> (535)
TIC10

>  <Synonyms> (535)
N/A

>  <Target> (535)
Akt

>  <Form> (535)
Free Base

>  <CAS> (535)
1616632-77-9

>  <URL> (535)
http://www.selleck.cn/products/tic-10.html

$$$$
Akti-1.cdx
csChFnd80/05071909292D

 42 49  0  0  0  0  0  0  0  0999 V2000
    7.0041    2.7976    0.0000 C   0  0  0  0  0  0  0  0  0  0  0  0
    7.0041    4.1976    0.0000 C   0  0  0  0  0  0  0  0  0  0  0  0
    5.7917    4.8976    0.0000 N   0  0  0  0  0  0  0  0  0  0  0  0
    4.5792    4.1976    0.0000 C   0  0  0  0  0  0  0  0  0  0  0  0
    4.5792    2.7976    0.0000 C   0  0  0  0  0  0  0  0  0  0  0  0
    5.7917    2.0976    0.0000 N   0  0  0  0  0  0  0  0  0  0  0  0
    3.3668    4.8976    0.0000 C   0  0  0  0  0  0  0  0  0  0  0  0
    2.1544    4.1976    0.0000 C   0  0  0  0  0  0  0  0  0  0  0  0
    2.1544    2.7976    0.0000 C   0  0  0  0  0  0  0  0  0  0  0  0
    3.3668    2.0976    0.0000 C   0  0  0  0  0  0  0  0  0  0  0  0
    0.8229    4.6302    0.0000 N   0  0  0  0  0  0  0  0  0  0  0  0
    0.0000    3.4976    0.0000 C   0  0  0  0  0  0  0  0  0  0  0  0
    0.8229    2.3649    0.0000 N   0  0  0  0  0  0  0  0  0  0  0  0
    8.2123    2.1000    0.0000 C   0  0  0  0  0  0  0  0  0  0  0  0
    8.2123    4.8951    0.0000 C   0  0  0  0  0  0  0  0  0  0  0  0
    8.2123    0.7000    0.0000 C   0  0  0  0  0  0  0  0  0  0  0  0
    9.4248    0.0000    0.0000 C   0  0  0  0  0  0  0  0  0  0  0  0
   10.6372    0.7000    0.0000 C   0  0  0  0  0  0  0  0  0  0  0  0
   10.6372    2.1000    0.0000 C   0  0  0  0  0  0  0  0  0  0  0  0
    9.4248    2.8000    0.0000 C   0  0  0  0  0  0  0  0  0  0  0  0
    9.4248    4.1951    0.0000 C   0  0  0  0  0  0  0  0  0  0  0  0
   10.6372    4.8951    0.0000 C   0  0  0  0  0  0  0  0  0  0  0  0
   10.6372    6.2951    0.0000 C   0  0  0  0  0  0  0  0  0  0  0  0
    9.4248    6.9951    0.0000 C   0  0  0  0  0  0  0  0  0  0  0  0
    8.2123    6.2951    0.0000 C   0  0  0  0  0  0  0  0  0  0  0  0
   11.8454    6.9927    0.0000 C   0  0  0  0  0  0  0  0  0  0  0  0
   13.0537    6.2951    0.0000 N   0  0  0  0  0  0  0  0  0  0  0  0
   13.0537    4.8951    0.0000 C   0  0  0  0  0  0  0  0  0  0  0  0
   14.2661    4.1951    0.0000 C   0  0  0  0  0  0  0  0  0  0  0  0
   15.4785    4.8951    0.0000 C   0  0  0  0  0  0  0  0  0  0  0  0
   15.4785    6.2951    0.0000 C   0  0  0  0  0  0  0  0  0  0  0  0
   14.2661    6.9951    0.0000 C   0  0  0  0  0  0  0  0  0  0  0  0
   16.6868    4.1976    0.0000 N   0  0  0  0  0  0  0  0  0  0  0  0
   16.8331    2.8052    0.0000 C   0  0  0  0  0  0  0  0  0  0  0  0
   18.2025    2.5142    0.0000 C   0  0  0  0  0  0  0  0  0  0  0  0
   18.9025    3.7266    0.0000 N   0  0  0  0  0  0  0  0  0  0  0  0
   17.9657    4.7670    0.0000 C   0  0  0  0  0  0  0  0  0  0  0  0
   15.8963    1.7648    0.0000 C   0  0  0  0  0  0  0  0  0  0  0  0
   16.3289    0.4334    0.0000 C   0  0  0  0  0  0  0  0  0  0  0  0
   17.6984    0.1423    0.0000 C   0  0  0  0  0  0  0  0  0  0  0  0
   18.6351    1.1827    0.0000 C   0  0  0  0  0  0  0  0  0  0  0  0
   18.2558    6.1317    0.0000 O   0  0  0  0  0  0  0  0  0  0  0  0
  1  2  2  0  0  0  0
  2  3  1  0  0  0  0
  3  4  2  0  0  0  0
  4  5  1  0  0  0  0
  5  6  2  0  0  0  0
  6  1  1  0  0  0  0
  4  7  1  0  0  0  0
  7  8  2  0  0  0  0
  8  9  1  0  0  0  0
  9 10  2  0  0  0  0
 10  5  1  0  0  0  0
  8 11  1  0  0  0  0
 11 12  2  0  0  0  0
 12 13  1  0  0  0  0
 13  9  1  0  0  0  0
  1 14  1  0  0  0  0
  2 15  1  0  0  0  0
 14 16  2  0  0  0  0
 16 17  1  0  0  0  0
 17 18  2  0  0  0  0
 18 19  1  0  0  0  0
 19 20  2  0  0  0  0
 20 14  1  0  0  0  0
 15 21  2  0  0  0  0
 21 22  1  0  0  0  0
 22 23  2  0  0  0  0
 23 24  1  0  0  0  0
 24 25  2  0  0  0  0
 25 15  1  0  0  0  0
 23 26  1  0  0  0  0
 26 27  1  0  0  0  0
 27 28  1  0  0  0  0
 28 29  1  0  0  0  0
 29 30  1  0  0  0  0
 30 31  1  0  0  0  0
 31 32  1  0  0  0  0
 32 27  1  0  0  0  0
 30 33  1  0  0  0  0
 33 34  1  0  0  0  0
 34 35  2  0  0  0  0
 35 36  1  0  0  0  0
 36 37  1  0  0  0  0
 37 33  1  0  0  0  0
 34 38  1  0  0  0  0
 38 39  2  0  0  0  0
 39 40  1  0  0  0  0
 40 41  2  0  0  0  0
 41 35  1  0  0  0  0
 37 42  2  0  0  0  0
M  END
>  <Mol_ID> (536)
3021

>  <Formula> (536)
C34H29N7O

>  <MolWeight> (536)
551.64036

>  <Cat> (536)
S7776

>  <Name> (536)
Akti-1/2

>  <Synonyms> (536)
N/A

>  <Target> (536)
Akt

>  <Form> (536)
Free Base

>  <CAS> (536)
612847-09-3

>  <URL> (536)
http://www.selleck.cn/products/akti-1-2.html

$$$$
BIO-acetoxime (GSK-3 Inhibitor X).cdx
csChFnd80/05071909292D

 25 28  0  0  0  0  0  0  0  0999 V2000
    0.0000    3.1641    0.0000 C   0  0  0  0  0  0  0  0  0  0  0  0
    0.0000    1.7641    0.0000 C   0  0  0  0  0  0  0  0  0  0  0  0
    1.2124    1.0641    0.0000 C   0  0  0  0  0  0  0  0  0  0  0  0
    2.4249    1.7641    0.0000 C   0  0  0  0  0  0  0  0  0  0  0  0
    2.4249    3.1641    0.0000 C   0  0  0  0  0  0  0  0  0  0  0  0
    1.2124    3.8641    0.0000 C   0  0  0  0  0  0  0  0  0  0  0  0
    3.7564    1.3315    0.0000 N   0  0  0  0  0  0  0  0  0  0  0  0
    4.5792    2.4641    0.0000 C   0  0  0  0  0  0  0  0  0  0  0  0
    3.7564    3.5967    0.0000 C   0  0  0  0  0  0  0  0  0  0  0  0
    4.1890    4.9282    0.0000 N   0  0  0  0  0  0  0  0  0  0  0  0
    5.9792    2.4641    0.0000 C   0  0  0  0  0  0  0  0  0  0  0  0
    6.8021    1.3315    0.0000 C   0  0  0  0  0  0  0  0  0  0  0  0
    8.1336    1.7641    0.0000 N   0  0  0  0  0  0  0  0  0  0  0  0
    8.1336    3.1641    0.0000 C   0  0  0  0  0  0  0  0  0  0  0  0
    6.8021    3.5967    0.0000 C   0  0  0  0  0  0  0  0  0  0  0  0
    6.3695    0.0000    0.0000 O   0  0  0  0  0  0  0  0  0  0  0  0
    9.1740    4.1009    0.0000 C   0  0  0  0  0  0  0  0  0  0  0  0
    8.8830    5.4703    0.0000 C   0  0  0  0  0  0  0  0  0  0  0  0
    7.5515    5.9029    0.0000 C   0  0  0  0  0  0  0  0  0  0  0  0
    6.5111    4.9661    0.0000 C   0  0  0  0  0  0  0  0  0  0  0  0
    3.2522    5.9686    0.0000 O   0  0  0  0  0  0  0  0  0  0  0  0
    3.6848    7.3001    0.0000 C   0  0  0  0  0  0  0  0  0  0  0  0
    2.7480    8.3405    0.0000 C   0  0  0  0  0  0  0  0  0  0  0  0
    5.0542    7.5912    0.0000 O   0  0  0  0  0  0  0  0  0  0  0  0
    9.9234    6.4071    0.0000 Br  0  0  0  0  0  0  0  0  0  0  0  0
  1  2  2  0  0  0  0
  2  3  1  0  0  0  0
  3  4  2  0  0  0  0
  4  5  1  0  0  0  0
  5  6  2  0  0  0  0
  6  1  1  0  0  0  0
  4  7  1  0  0  0  0
  7  8  1  0  0  0  0
  8  9  1  0  0  0  0
  9  5  1  0  0  0  0
  9 10  2  0  0  0  0
  8 11  2  0  0  0  0
 11 12  1  0  0  0  0
 12 13  1  0  0  0  0
 13 14  1  0  0  0  0
 14 15  2  0  0  0  0
 15 11  1  0  0  0  0
 12 16  2  0  0  0  0
 14 17  1  0  0  0  0
 17 18  2  0  0  0  0
 18 19  1  0  0  0  0
 19 20  2  0  0  0  0
 20 15  1  0  0  0  0
 10 21  1  0  0  0  0
 21 22  1  0  0  0  0
 22 23  1  0  0  0  0
 22 24  2  0  0  0  0
 18 25  1  0  0  0  0
M  END
>  <Mol_ID> (537)
3022

>  <Formula> (537)
C18H12BrN3O3

>  <MolWeight> (537)
398.21018

>  <Cat> (537)
S7915

>  <Name> (537)
BIO-acetoxime

>  <Synonyms> (537)
N/A

>  <Target> (537)
GSK-3

>  <Form> (537)
Free Base

>  <CAS> (537)
667463-85-6

>  <URL> (537)
http://www.selleck.cn/products/bio-acetoxime.html

$$$$
AMG319.cdx
csChFnd80/05071909292D

 29 33  0  0  0  0  0  0  0  0999 V2000
    4.8497    4.2000    0.0000 C   0  0  0  0  0  0  0  0  0  0  0  0
    4.8497    2.8000    0.0000 C   0  0  0  0  0  0  0  0  0  0  0  0
    6.0622    2.1000    0.0000 N   0  0  0  0  0  0  0  0  0  0  0  0
    7.2746    2.8000    0.0000 C   0  0  0  0  0  0  0  0  0  0  0  0
    7.2746    4.2000    0.0000 C   0  0  0  0  0  0  0  0  0  0  0  0
    6.0622    4.9000    0.0000 C   0  0  0  0  0  0  0  0  0  0  0  0
    8.4870    2.1000    0.0000 C   0  0  0  0  0  0  0  0  0  0  0  0
    9.6995    2.8000    0.0000 C   0  0  0  0  0  0  0  0  0  0  0  0
    9.6995    4.2000    0.0000 C   0  0  0  0  0  0  0  0  0  0  0  0
    8.4870    4.9000    0.0000 C   0  0  0  0  0  0  0  0  0  0  0  0
    3.6373    2.1000    0.0000 C   0  0  0  0  0  0  0  0  0  0  0  0
    3.6373    4.9000    0.0000 C   0  0  2  0  0  0  0  0  0  0  0  0
    2.4249    4.2000    0.0000 C   0  0  0  0  0  0  0  0  0  0  0  0
    3.6373    6.3000    0.0000 N   0  0  0  0  0  0  0  0  0  0  0  0
    2.4249    7.0000    0.0000 C   0  0  0  0  0  0  0  0  0  0  0  0
    2.4249    8.4000    0.0000 C   0  0  0  0  0  0  0  0  0  0  0  0
    1.2124    9.1000    0.0000 C   0  0  0  0  0  0  0  0  0  0  0  0
    0.0000    8.4000    0.0000 N   0  0  0  0  0  0  0  0  0  0  0  0
    0.0000    7.0000    0.0000 C   0  0  0  0  0  0  0  0  0  0  0  0
    1.2124    6.3000    0.0000 N   0  0  0  0  0  0  0  0  0  0  0  0
    3.4653    9.3368    0.0000 N   0  0  0  0  0  0  0  0  0  0  0  0
    2.8958   10.6157    0.0000 C   0  0  0  0  0  0  0  0  0  0  0  0
    1.5035   10.4694    0.0000 N   0  0  0  0  0  0  0  0  0  0  0  0
   10.9077    2.1024    0.0000 F   0  0  0  0  0  0  0  0  0  0  0  0
    2.4249    2.8000    0.0000 C   0  0  0  0  0  0  0  0  0  0  0  0
    1.2124    2.1000    0.0000 C   0  0  0  0  0  0  0  0  0  0  0  0
    1.2124    0.7000    0.0000 C   0  0  0  0  0  0  0  0  0  0  0  0
    2.4249    0.0000    0.0000 C   0  0  0  0  0  0  0  0  0  0  0  0
    3.6373    0.7000    0.0000 N   0  0  0  0  0  0  0  0  0  0  0  0
  1  2  2  0  0  0  0
  2  3  1  0  0  0  0
  3  4  2  0  0  0  0
  4  5  1  0  0  0  0
  5  6  2  0  0  0  0
  6  1  1  0  0  0  0
  4  7  1  0  0  0  0
  7  8  2  0  0  0  0
  8  9  1  0  0  0  0
  9 10  2  0  0  0  0
 10  5  1  0  0  0  0
  1 12  1  0  0  0  0
 12 13  1  0  0  0  0
 12 14  1  6  0  0  0
 14 15  1  0  0  0  0
 15 16  2  0  0  0  0
 16 17  1  0  0  0  0
 17 18  2  0  0  0  0
 18 19  1  0  0  0  0
 19 20  2  0  0  0  0
 20 15  1  0  0  0  0
 16 21  1  0  0  0  0
 21 22  2  0  0  0  0
 22 23  1  0  0  0  0
 23 17  1  0  0  0  0
  8 24  1  0  0  0  0
 11  2  1  0  0  0  0
 11 25  2  0  0  0  0
 25 26  1  0  0  0  0
 26 27  2  0  0  0  0
 27 28  1  0  0  0  0
 28 29  2  0  0  0  0
 29 11  1  0  0  0  0
M  END
>  <Mol_ID> (538)
3025

>  <Formula> (538)
C21H16FN7

>  <MolWeight> (538)
385.3970432

>  <Cat> (538)
S7813

>  <Name> (538)
AMG319

>  <Synonyms> (538)
N/A

>  <Target> (538)
PI3K

>  <Form> (538)
Free Base

>  <CAS> (538)
1608125-21-8

>  <URL> (538)
http://www.selleckchem.com/products/amg319.html

$$$$
AZD3264.cdx
csChFnd80/05071909292D

 31 34  0  0  0  0  0  0  0  0999 V2000
    3.4282    4.4291    0.0000 C   0  0  0  0  0  0  0  0  0  0  0  0
    3.4282    3.0291    0.0000 C   0  0  0  0  0  0  0  0  0  0  0  0
    4.6406    2.3291    0.0000 C   0  0  0  0  0  0  0  0  0  0  0  0
    5.8531    3.0291    0.0000 C   0  0  0  0  0  0  0  0  0  0  0  0
    5.8531    4.4291    0.0000 C   0  0  0  0  0  0  0  0  0  0  0  0
    4.6406    5.1291    0.0000 C   0  0  0  0  0  0  0  0  0  0  0  0
    4.6406    6.5291    0.0000 O   0  0  0  0  0  0  0  0  0  0  0  0
    3.4282    7.2291    0.0000 C   0  0  1  0  0  0  0  0  0  0  0  0
    3.2818    8.6214    0.0000 C   0  0  0  0  0  0  0  0  0  0  0  0
    1.9124    8.9125    0.0000 C   0  0  0  0  0  0  0  0  0  0  0  0
    1.2124    7.7001    0.0000 N   0  0  0  0  0  0  0  0  0  0  0  0
    2.1492    6.6597    0.0000 C   0  0  0  0  0  0  0  0  0  0  0  0
    7.0655    5.1291    0.0000 C   0  0  0  0  0  0  0  0  0  0  0  0
    8.3445    4.5597    0.0000 S   0  0  0  0  0  0  0  0  0  0  0  0
    9.2812    5.6001    0.0000 C   0  0  0  0  0  0  0  0  0  0  0  0
    8.5812    6.8125    0.0000 C   0  0  0  0  0  0  0  0  0  0  0  0
    7.2118    6.5214    0.0000 C   0  0  0  0  0  0  0  0  0  0  0  0
    9.1507    8.0915    0.0000 C   0  0  0  0  0  0  0  0  0  0  0  0
    8.3278    9.2241    0.0000 O   0  0  0  0  0  0  0  0  0  0  0  0
   10.5430    8.2378    0.0000 N   0  0  0  0  0  0  0  0  0  0  0  0
   10.6736    5.4537    0.0000 N   0  0  0  0  0  0  0  0  0  0  0  0
   11.2430    4.1748    0.0000 C   0  0  0  0  0  0  0  0  0  0  0  0
   10.4201    3.0422    0.0000 O   0  0  0  0  0  0  0  0  0  0  0  0
   12.6353    4.0284    0.0000 N   0  0  0  0  0  0  0  0  0  0  0  0
    2.2157    2.3291    0.0000 C   0  0  0  0  0  0  0  0  0  0  0  0
    0.9368    2.8985    0.0000 C   0  0  0  0  0  0  0  0  0  0  0  0
    0.0000    1.8581    0.0000 N   0  0  0  0  0  0  0  0  0  0  0  0
    0.7000    0.6457    0.0000 O   0  0  0  0  0  0  0  0  0  0  0  0
    2.0694    0.9368    0.0000 C   0  0  0  0  0  0  0  0  0  0  0  0
    0.6457    4.2680    0.0000 C   0  0  0  0  0  0  0  0  0  0  0  0
    3.1098    0.0000    0.0000 C   0  0  0  0  0  0  0  0  0  0  0  0
  1  2  2  0  0  0  0
  2  3  1  0  0  0  0
  3  4  2  0  0  0  0
  4  5  1  0  0  0  0
  5  6  2  0  0  0  0
  6  1  1  0  0  0  0
  6  7  1  0  0  0  0
  8  7  1  6  0  0  0
  8  9  1  0  0  0  0
  9 10  1  0  0  0  0
 10 11  1  0  0  0  0
 11 12  1  0  0  0  0
 12  8  1  0  0  0  0
  5 13  1  0  0  0  0
 13 14  1  0  0  0  0
 14 15  1  0  0  0  0
 15 16  2  0  0  0  0
 16 17  1  0  0  0  0
 17 13  2  0  0  0  0
 16 18  1  0  0  0  0
 18 19  2  0  0  0  0
 18 20  1  0  0  0  0
 15 21  1  0  0  0  0
 21 22  1  0  0  0  0
 22 23  2  0  0  0  0
 22 24  1  0  0  0  0
  2 25  1  0  0  0  0
 25 26  1  0  0  0  0
 26 27  2  0  0  0  0
 27 28  1  0  0  0  0
 28 29  1  0  0  0  0
 29 25  2  0  0  0  0
 26 30  1  0  0  0  0
 29 31  1  0  0  0  0
M  END
>  <Mol_ID> (539)
3027

>  <Formula> (539)
C21H23N5O4S

>  <MolWeight> (539)
441.50342

>  <Cat> (539)
S7851

>  <Name> (539)
AZD3264

>  <Synonyms> (539)
N/A

>  <Target> (539)
IB/IKK

>  <Form> (539)
Free Base

>  <CAS> (539)
1609281-86-8

>  <URL> (539)
http://www.selleckchem.com/products/azd3264.html

$$$$

csChFnd80/05071909292D

 33 37  0  0  0  0  0  0  0  0999 V2000
    8.4716    2.1114    0.0000 C   0  0  0  0  0  0  0  0  0  0  0  0
    8.4584    0.7114    0.0000 C   0  0  0  0  0  0  0  0  0  0  0  0
    9.6641    0.0000    0.0000 C   0  0  0  0  0  0  0  0  0  0  0  0
   10.8831    0.6885    0.0000 C   0  0  0  0  0  0  0  0  0  0  0  0
   10.8964    2.0884    0.0000 C   0  0  0  0  0  0  0  0  0  0  0  0
    9.6906    2.7999    0.0000 C   0  0  0  0  0  0  0  0  0  0  0  0
   12.2105    0.2433    0.0000 N   0  0  0  0  0  0  0  0  0  0  0  0
   13.0441    1.3681    0.0000 C   0  0  0  0  0  0  0  0  0  0  0  0
   12.2319    2.5084    0.0000 C   0  0  0  0  0  0  0  0  0  0  0  0
   14.4440    1.3548    0.0000 O   0  0  0  0  0  0  0  0  0  0  0  0
   12.1797    5.7244    0.0000 C   0  0  0  0  0  0  0  0  0  0  0  0
    7.2659    2.8228    0.0000 N   0  0  0  0  0  0  0  0  0  0  0  0
    6.0469    2.1343    0.0000 C   0  0  0  0  0  0  0  0  0  0  0  0
    4.8411    2.8458    0.0000 C   0  0  0  0  0  0  0  0  0  0  0  0
    6.0336    0.7344    0.0000 O   0  0  0  0  0  0  0  0  0  0  0  0
   13.2059    6.6767    0.0000 C   0  0  0  0  0  0  0  0  0  0  0  0
   12.6173    7.9470    0.0000 N   0  0  0  0  0  0  0  0  0  0  0  0
   11.2273    7.7798    0.0000 C   0  0  0  0  0  0  0  0  0  0  0  0
   10.9568    6.4061    0.0000 C   0  0  0  0  0  0  0  0  0  0  0  0
   10.1730    8.7008    0.0000 C   0  0  0  0  0  0  0  0  0  0  0  0
    8.8482    8.2483    0.0000 C   0  0  0  0  0  0  0  0  0  0  0  0
    8.5777    6.8747    0.0000 C   0  0  0  0  0  0  0  0  0  0  0  0
    9.6320    5.9536    0.0000 C   0  0  0  0  0  0  0  0  0  0  0  0
    7.2528    6.4221    0.0000 O   0  0  0  0  0  0  0  0  0  0  0  0
    6.1985    7.3432    0.0000 C   0  0  0  0  0  0  0  0  0  0  0  0
   12.2452    3.9084    0.0000 C   0  0  0  0  0  0  0  0  0  0  0  0
    1.2204    4.9512    0.0000 C   0  0  0  0  0  0  0  0  0  0  0  0
    2.4376    4.2596    0.0000 C   0  0  0  0  0  0  0  0  0  0  0  0
    3.6263    2.1597    0.0000 C   0  0  0  0  0  0  0  0  0  0  0  0
    2.4248    2.8686    0.0000 N   0  0  0  0  0  0  0  0  0  0  0  0
    0.0132    4.2915    0.0000 C   0  0  0  0  0  0  0  0  0  0  0  0
    0.0000    2.8916    0.0000 C   0  0  0  0  0  0  0  0  0  0  0  0
    1.2058    2.1801    0.0000 C   0  0  0  0  0  0  0  0  0  0  0  0
  1  2  2  0  0  0  0
  2  3  1  0  0  0  0
  3  4  2  0  0  0  0
  4  5  1  0  0  0  0
  5  6  2  0  0  0  0
  6  1  1  0  0  0  0
  4  7  1  0  0  0  0
  7  8  1  0  0  0  0
  8  9  1  0  0  0  0
  9  5  1  0  0  0  0
  8 10  2  0  0  0  0
  1 12  1  0  0  0  0
 12 13  1  0  0  0  0
 13 14  1  0  0  0  0
 13 15  2  0  0  0  0
 11 16  2  0  0  0  0
 16 17  1  0  0  0  0
 17 18  1  0  0  0  0
 18 19  2  0  0  0  0
 19 11  1  0  0  0  0
 18 20  1  0  0  0  0
 20 21  2  0  0  0  0
 21 22  1  0  0  0  0
 22 23  2  0  0  0  0
 23 19  1  0  0  0  0
 22 24  1  0  0  0  0
 24 25  1  0  0  0  0
  9 26  2  0  0  0  0
 26 11  1  0  0  0  0
 27 28  1  0  0  0  0
 14 29  1  0  0  0  0
 29 30  1  0  0  0  0
 30 28  1  0  0  0  0
 27 31  1  0  0  0  0
 31 32  1  0  0  0  0
 32 33  1  0  0  0  0
 33 30  1  0  0  0  0
M  END
>  <Mol_ID> (540)
3031

>  <Formula> (540)
C26H28N4O3

>  <MolWeight> (540)
444.52552

>  <Cat> (540)
S7921

>  <Name> (540)
DEL-22379

>  <Synonyms> (540)
N/A

>  <Target> (540)
ERK

>  <Form> (540)
Free Base

>  <CAS> (540)
181223-80-3

>  <URL> (540)
http://www.selleckchem.com/products/del-22379.html

$$$$
ASP015K.cdx
csChFnd80/05071909292D

 24 28  0  0  0  0  0  0  0  0999 V2000
    3.8859    6.7795    0.0000 C   0  0  0  0  0  0  0  0  0  0  0  0
    3.8859    5.3795    0.0000 C   0  0  0  0  0  0  0  0  0  0  0  0
    5.0983    4.6795    0.0000 C   0  0  0  0  0  0  0  0  0  0  0  0
    6.3108    5.3795    0.0000 C   0  0  0  0  0  0  0  0  0  0  0  0
    6.3108    6.7795    0.0000 C   0  0  0  0  0  0  0  0  0  0  0  0
    5.0983    7.4795    0.0000 N   0  0  0  0  0  0  0  0  0  0  0  0
    2.5544    7.2121    0.0000 N   0  0  0  0  0  0  0  0  0  0  0  0
    1.7315    6.0795    0.0000 C   0  0  0  0  0  0  0  0  0  0  0  0
    2.5544    4.9469    0.0000 C   0  0  0  0  0  0  0  0  0  0  0  0
    7.5232    4.6795    0.0000 C   0  0  0  0  0  0  0  0  0  0  0  0
    8.7356    5.3795    0.0000 N   0  0  0  0  0  0  0  0  0  0  0  0
    7.5232    3.2795    0.0000 O   0  0  0  0  0  0  0  0  0  0  0  0
    5.0983    3.2795    0.0000 N   0  0  0  0  0  0  0  0  0  0  0  0
    1.2124    1.2124    0.0000 C   0  0  2  0  0  0  0  0  0  0  0  0
    0.5124    0.0000    0.0000 C   0  0  0  0  0  0  0  0  0  0  0  0
    1.8586    0.3847    0.0000 C   0  0  3  0  0  0  0  0  0  0  0  0
    3.2128    0.0000    0.0000 C   0  0  0  0  0  0  0  0  0  0  0  0
    3.9130    1.2124    0.0000 C   0  0  3  0  0  0  0  0  0  0  0  0
    2.5668    0.8278    0.0000 C   0  0  0  0  0  0  0  0  0  0  0  0
    1.2124    2.6124    0.0000 C   0  0  0  0  0  0  0  0  0  0  0  0
    3.9130    2.6124    0.0000 C   0  0  1  0  0  0  0  0  0  0  0  0
    2.4249    3.3124    0.0000 C   0  0  3  0  0  0  0  0  0  0  0  0
    0.0000    1.9124    0.0000 O   0  0  0  0  0  0  0  0  0  0  0  0
    1.7249    2.1000    0.0000 C   0  0  0  0  0  0  0  0  0  0  0  0
  1  2  2  0  0  0  0
  2  3  1  0  0  0  0
  3  4  2  0  0  0  0
  4  5  1  0  0  0  0
  5  6  2  0  0  0  0
  6  1  1  0  0  0  0
  1  7  1  0  0  0  0
  7  8  1  0  0  0  0
  8  9  2  0  0  0  0
  9  2  1  0  0  0  0
  4 10  1  0  0  0  0
 10 11  1  0  0  0  0
 10 12  2  0  0  0  0
  3 13  1  0  0  0  0
 14 15  1  0  0  0  0
 15 16  1  0  0  0  0
 16 17  1  0  0  0  0
 17 18  1  0  0  0  0
 18 19  1  0  0  0  0
 19 14  1  0  0  0  0
 14 20  1  0  0  0  0
 18 21  1  0  0  0  0
 20 22  1  0  0  0  0
 22 21  1  0  0  0  0
 21 13  1  1  0  0  0
 14 23  1  6  0  0  0
 22 24  1  0  0  0  0
 24 16  1  0  0  0  0
M  END
>  <Mol_ID> (541)
3038

>  <Formula> (541)
C18H22N4O2

>  <MolWeight> (541)
326.39288

>  <Cat> (541)
S7650

>  <Name> (541)
Peficitinib (ASP015K, JNJ-54781532)

>  <Synonyms> (541)
N/A

>  <Target> (541)
JAK

>  <Form> (541)
Free Base

>  <CAS> (541)
944118-01-8

>  <URL> (541)
http://www.selleckchem.com/products/peficitinb-asp015k-jnj-54781532.html

$$$$
Entrectinib (RXDX-101, NMS-E628).cdx
csChFnd80/05071909292D

 41 46  0  0  0  0  0  0  0  0999 V2000
    6.0519    2.0950    0.0000 C   0  0  0  0  0  0  0  0  0  0  0  0
    7.2604    1.3883    0.0000 C   0  0  0  0  0  0  0  0  0  0  0  0
    8.4767    2.0815    0.0000 C   0  0  0  0  0  0  0  0  0  0  0  0
    8.4845    3.4815    0.0000 C   0  0  0  0  0  0  0  0  0  0  0  0
    7.2760    4.1882    0.0000 C   0  0  0  0  0  0  0  0  0  0  0  0
    6.0597    3.4950    0.0000 C   0  0  0  0  0  0  0  0  0  0  0  0
    9.8058    1.6415    0.0000 N   0  0  0  0  0  0  0  0  0  0  0  0
   10.6350    2.7695    0.0000 N   0  0  0  0  0  0  0  0  0  0  0  0
    9.8058    3.9067    0.0000 C   0  0  0  0  0  0  0  0  0  0  0  0
    4.8512    4.2017    0.0000 C   0  0  0  0  0  0  0  0  0  0  0  0
    3.6349    3.5085    0.0000 C   0  0  0  0  0  0  0  0  0  0  0  0
    2.4303    4.2220    0.0000 C   0  0  0  0  0  0  0  0  0  0  0  0
    1.2101    3.5085    0.0000 C   0  0  0  0  0  0  0  0  0  0  0  0
    1.2101    2.1086    0.0000 C   0  0  0  0  0  0  0  0  0  0  0  0
    2.4303    1.3951    0.0000 C   0  0  0  0  0  0  0  0  0  0  0  0
    3.6349    2.1086    0.0000 C   0  0  0  0  0  0  0  0  0  0  0  0
    0.0000    4.2027    0.0000 F   0  0  0  0  0  0  0  0  0  0  0  0
    2.4342    0.0000    0.0000 F   0  0  0  0  0  0  0  0  0  0  0  0
   10.2376    5.2333    0.0000 N   0  0  0  0  0  0  0  0  0  0  0  0
   11.6025    5.5227    0.0000 C   0  0  0  0  0  0  0  0  0  0  0  0
   12.5354    4.4854    0.0000 O   0  0  0  0  0  0  0  0  0  0  0  0
   12.0343    6.8493    0.0000 C   0  0  0  0  0  0  0  0  0  0  0  0
   13.4039    7.1396    0.0000 C   0  0  0  0  0  0  0  0  0  0  0  0
   13.8372    8.4708    0.0000 C   0  0  0  0  0  0  0  0  0  0  0  0
   12.9010    9.5118    0.0000 C   0  0  0  0  0  0  0  0  0  0  0  0
   11.5314    9.2214    0.0000 C   0  0  0  0  0  0  0  0  0  0  0  0
   11.0981    7.8902    0.0000 C   0  0  0  0  0  0  0  0  0  0  0  0
   13.3329   10.8384    0.0000 N   0  0  0  0  0  0  0  0  0  0  0  0
   14.7024   11.1287    0.0000 C   0  0  0  0  0  0  0  0  0  0  0  0
   15.1358   12.4599    0.0000 C   0  0  0  0  0  0  0  0  0  0  0  0
   14.1996   13.5009    0.0000 N   0  0  0  0  0  0  0  0  0  0  0  0
   12.8300   13.2105    0.0000 C   0  0  0  0  0  0  0  0  0  0  0  0
   12.3966   11.8793    0.0000 C   0  0  0  0  0  0  0  0  0  0  0  0
   14.6314   14.8275    0.0000 C   0  0  0  0  0  0  0  0  0  0  0  0
    9.7333    7.6009    0.0000 N   0  0  0  0  0  0  0  0  0  0  0  0
    8.8003    8.6382    0.0000 C   0  0  0  0  0  0  0  0  0  0  0  0
    9.2337    9.9694    0.0000 C   0  0  0  0  0  0  0  0  0  0  0  0
    8.2975   11.0103    0.0000 C   0  0  0  0  0  0  0  0  0  0  0  0
    6.9279   10.7200    0.0000 O   0  0  0  0  0  0  0  0  0  0  0  0
    6.4945    9.3888    0.0000 C   0  0  0  0  0  0  0  0  0  0  0  0
    7.4307    8.3478    0.0000 C   0  0  0  0  0  0  0  0  0  0  0  0
  1  2  2  0  0  0  0
  2  3  1  0  0  0  0
  3  4  2  0  0  0  0
  4  5  1  0  0  0  0
  5  6  2  0  0  0  0
  6  1  1  0  0  0  0
  3  7  1  0  0  0  0
  7  8  1  0  0  0  0
  8  9  2  0  0  0  0
  9  4  1  0  0  0  0
  6 10  1  0  0  0  0
 10 11  1  0  0  0  0
 11 12  2  0  0  0  0
 12 13  1  0  0  0  0
 13 14  2  0  0  0  0
 14 15  1  0  0  0  0
 15 16  2  0  0  0  0
 16 11  1  0  0  0  0
 13 17  1  0  0  0  0
 15 18  1  0  0  0  0
  9 19  1  0  0  0  0
 19 20  1  0  0  0  0
 20 21  2  0  0  0  0
 20 22  1  0  0  0  0
 22 23  2  0  0  0  0
 23 24  1  0  0  0  0
 24 25  2  0  0  0  0
 25 26  1  0  0  0  0
 26 27  2  0  0  0  0
 27 22  1  0  0  0  0
 25 28  1  0  0  0  0
 28 29  1  0  0  0  0
 29 30  1  0  0  0  0
 30 31  1  0  0  0  0
 31 32  1  0  0  0  0
 32 33  1  0  0  0  0
 33 28  1  0  0  0  0
 31 34  1  0  0  0  0
 27 35  1  0  0  0  0
 35 36  1  0  0  0  0
 36 37  1  0  0  0  0
 37 38  1  0  0  0  0
 38 39  1  0  0  0  0
 39 40  1  0  0  0  0
 40 41  1  0  0  0  0
 41 36  1  0  0  0  0
M  END
>  <Mol_ID> (542)
3039

>  <Formula> (542)
C31H34F2N6O2

>  <MolWeight> (542)
560.6374664

>  <Cat> (542)
S7998

>  <Name> (542)
Entrectinib (RXDX-101)

>  <Synonyms> (542)
NMS-E628

>  <Target> (542)
Trk receptor

>  <Form> (542)
Free Base

>  <CAS> (542)
1108743-60-7

>  <URL> (542)
http://www.selleckchem.com/products/entrectinib-rxdx-101.html

$$$$
CH5126766 (RO5126766).cdx
csChFnd80/05071909292D

 33 36  0  0  0  0  0  0  0  0999 V2000
    4.8497    3.5000    0.0000 C   0  0  0  0  0  0  0  0  0  0  0  0
    4.8497    2.1000    0.0000 C   0  0  0  0  0  0  0  0  0  0  0  0
    6.0622    1.4000    0.0000 C   0  0  0  0  0  0  0  0  0  0  0  0
    7.2746    2.1000    0.0000 C   0  0  0  0  0  0  0  0  0  0  0  0
    7.2746    3.5000    0.0000 C   0  0  0  0  0  0  0  0  0  0  0  0
    6.0622    4.2000    0.0000 C   0  0  0  0  0  0  0  0  0  0  0  0
    8.4871    1.4000    0.0000 C   0  0  0  0  0  0  0  0  0  0  0  0
    9.6995    2.1000    0.0000 C   0  0  0  0  0  0  0  0  0  0  0  0
    9.6995    3.5000    0.0000 C   0  0  0  0  0  0  0  0  0  0  0  0
    8.4871    4.2000    0.0000 O   0  0  0  0  0  0  0  0  0  0  0  0
   10.9119    4.2000    0.0000 O   0  0  0  0  0  0  0  0  0  0  0  0
    8.4871    0.0000    0.0000 C   0  0  0  0  0  0  0  0  0  0  0  0
    3.6373    4.2000    0.0000 O   0  0  0  0  0  0  0  0  0  0  0  0
    2.4249    3.5000    0.0000 C   0  0  0  0  0  0  0  0  0  0  0  0
   10.9119    1.4000    0.0000 C   0  0  0  0  0  0  0  0  0  0  0  0
   12.1244    2.1000    0.0000 C   0  0  0  0  0  0  0  0  0  0  0  0
   13.3368    1.4000    0.0000 C   0  0  0  0  0  0  0  0  0  0  0  0
   14.5492    2.1000    0.0000 C   0  0  0  0  0  0  0  0  0  0  0  0
   14.5492    3.5000    0.0000 N   0  0  0  0  0  0  0  0  0  0  0  0
   13.3368    4.2000    0.0000 C   0  0  0  0  0  0  0  0  0  0  0  0
   12.1244    3.5000    0.0000 C   0  0  0  0  0  0  0  0  0  0  0  0
    1.2124    4.2000    0.0000 N   0  0  0  0  0  0  0  0  0  0  0  0
    0.0000    3.5000    0.0000 C   0  0  0  0  0  0  0  0  0  0  0  0
    0.0000    2.1000    0.0000 C   0  0  0  0  0  0  0  0  0  0  0  0
    1.2124    1.4000    0.0000 C   0  0  0  0  0  0  0  0  0  0  0  0
    2.4249    2.1000    0.0000 N   0  0  0  0  0  0  0  0  0  0  0  0
   15.7617    1.4000    0.0000 N   0  0  0  0  0  0  0  0  0  0  0  0
   16.9741    2.1000    0.0000 S   0  0  0  0  0  0  0  0  0  0  0  0
   18.1865    1.4000    0.0000 N   0  0  0  0  0  0  0  0  0  0  0  0
   19.3990    2.1000    0.0000 C   0  0  0  0  0  0  0  0  0  0  0  0
   16.9741    3.5000    0.0000 O   0  0  0  0  0  0  0  0  0  0  0  0
   16.9741    0.7000    0.0000 O   0  0  0  0  0  0  0  0  0  0  0  0
   13.3368    0.0000    0.0000 F   0  0  0  0  0  0  0  0  0  0  0  0
  1  2  2  0  0  0  0
  2  3  1  0  0  0  0
  3  4  2  0  0  0  0
  4  5  1  0  0  0  0
  5  6  2  0  0  0  0
  6  1  1  0  0  0  0
  4  7  1  0  0  0  0
  7  8  2  0  0  0  0
  8  9  1  0  0  0  0
  9 10  1  0  0  0  0
 10  5  1  0  0  0  0
  9 11  2  0  0  0  0
  7 12  1  0  0  0  0
  1 13  1  0  0  0  0
 13 14  1  0  0  0  0
  8 15  1  0  0  0  0
 15 16  1  0  0  0  0
 16 17  2  0  0  0  0
 17 18  1  0  0  0  0
 18 19  2  0  0  0  0
 19 20  1  0  0  0  0
 20 21  2  0  0  0  0
 21 16  1  0  0  0  0
 14 22  2  0  0  0  0
 22 23  1  0  0  0  0
 23 24  2  0  0  0  0
 24 25  1  0  0  0  0
 25 26  2  0  0  0  0
 26 14  1  0  0  0  0
 18 27  1  0  0  0  0
 27 28  1  0  0  0  0
 28 29  1  0  0  0  0
 29 30  1  0  0  0  0
 28 31  2  0  0  0  0
 28 32  2  0  0  0  0
 17 33  1  0  0  0  0
M  END
>  <Mol_ID> (543)
3040

>  <Formula> (543)
C21H18FN5O5S

>  <MolWeight> (543)
471.4615232

>  <Cat> (543)
S7170

>  <Name> (543)
RO5126766 (CH5126766)

>  <Synonyms> (543)
N/A

>  <Target> (543)
Raf

>  <Form> (543)
Free Base

>  <CAS> (543)
946128-88-7

>  <URL> (543)
http://www.selleckchem.com/products/ro5126766-ch5126766.html

$$$$
FIIN-2.cdx
csChFnd80/05071909292D

 47 52  0  0  0  0  0  0  0  0999 V2000
    9.6827    6.2927    0.0000 N   0  0  0  0  0  0  0  0  0  0  0  0
    9.6827    4.8927    0.0000 C   0  0  0  0  0  0  0  0  0  0  0  0
   10.8951    4.1927    0.0000 N   0  0  0  0  0  0  0  0  0  0  0  0
   12.1075    4.8927    0.0000 C   0  0  0  0  0  0  0  0  0  0  0  0
   12.1075    6.2927    0.0000 C   0  0  0  0  0  0  0  0  0  0  0  0
   10.8951    6.9927    0.0000 C   0  0  0  0  0  0  0  0  0  0  0  0
   13.3200    4.1927    0.0000 N   0  0  0  0  0  0  0  0  0  0  0  0
   14.5324    4.8927    0.0000 C   0  0  0  0  0  0  0  0  0  0  0  0
   14.5324    6.2927    0.0000 N   0  0  0  0  0  0  0  0  0  0  0  0
   13.3200    6.9927    0.0000 C   0  0  0  0  0  0  0  0  0  0  0  0
    8.4744    4.1951    0.0000 N   0  0  0  0  0  0  0  0  0  0  0  0
    7.2662    4.8927    0.0000 C   0  0  0  0  0  0  0  0  0  0  0  0
    7.2662    6.2927    0.0000 C   0  0  0  0  0  0  0  0  0  0  0  0
    6.0538    6.9927    0.0000 C   0  0  0  0  0  0  0  0  0  0  0  0
    4.8413    6.2927    0.0000 C   0  0  0  0  0  0  0  0  0  0  0  0
    4.8413    4.8927    0.0000 C   0  0  0  0  0  0  0  0  0  0  0  0
    6.0538    4.1927    0.0000 C   0  0  0  0  0  0  0  0  0  0  0  0
    3.6331    6.9903    0.0000 N   0  0  0  0  0  0  0  0  0  0  0  0
    3.6331    8.3903    0.0000 C   0  0  0  0  0  0  0  0  0  0  0  0
    2.4207    9.0903    0.0000 C   0  0  0  0  0  0  0  0  0  0  0  0
    1.2082    8.3903    0.0000 N   0  0  0  0  0  0  0  0  0  0  0  0
    1.2082    6.9903    0.0000 C   0  0  0  0  0  0  0  0  0  0  0  0
    2.4207    6.2903    0.0000 C   0  0  0  0  0  0  0  0  0  0  0  0
    0.0000    9.0879    0.0000 C   0  0  0  0  0  0  0  0  0  0  0  0
   15.7406    6.9903    0.0000 C   0  0  0  0  0  0  0  0  0  0  0  0
   13.3200    2.7976    0.0000 C   0  0  0  0  0  0  0  0  0  0  0  0
   12.1117    2.1000    0.0000 C   0  0  0  0  0  0  0  0  0  0  0  0
   10.8993    2.8000    0.0000 C   0  0  0  0  0  0  0  0  0  0  0  0
    9.6869    2.1000    0.0000 C   0  0  0  0  0  0  0  0  0  0  0  0
    9.6869    0.7000    0.0000 C   0  0  0  0  0  0  0  0  0  0  0  0
   10.8993    0.0000    0.0000 C   0  0  0  0  0  0  0  0  0  0  0  0
   12.1117    0.7000    0.0000 C   0  0  0  0  0  0  0  0  0  0  0  0
    8.4786    0.0024    0.0000 N   0  0  0  0  0  0  0  0  0  0  0  0
    7.2704    0.7000    0.0000 C   0  0  0  0  0  0  0  0  0  0  0  0
    6.0622    0.0024    0.0000 C   0  0  0  0  0  0  0  0  0  0  0  0
    7.2704    2.0951    0.0000 O   0  0  0  0  0  0  0  0  0  0  0  0
    4.8540    0.7000    0.0000 C   0  0  0  0  0  0  0  0  0  0  0  0
   15.7406    4.1951    0.0000 O   0  0  0  0  0  0  0  0  0  0  0  0
   16.9531    6.2903    0.0000 C   0  0  0  0  0  0  0  0  0  0  0  0
   18.1655    6.9903    0.0000 C   0  0  0  0  0  0  0  0  0  0  0  0
   18.1655    8.3903    0.0000 C   0  0  0  0  0  0  0  0  0  0  0  0
   16.9531    9.0903    0.0000 C   0  0  0  0  0  0  0  0  0  0  0  0
   15.7406    8.3903    0.0000 C   0  0  0  0  0  0  0  0  0  0  0  0
   16.9531   10.4854    0.0000 O   0  0  0  0  0  0  0  0  0  0  0  0
   18.1613   11.1830    0.0000 C   0  0  0  0  0  0  0  0  0  0  0  0
   19.3737    6.2927    0.0000 O   0  0  0  0  0  0  0  0  0  0  0  0
   20.5819    6.9903    0.0000 C   0  0  0  0  0  0  0  0  0  0  0  0
  1  2  2  0  0  0  0
  2  3  1  0  0  0  0
  3  4  2  0  0  0  0
  4  5  1  0  0  0  0
  5  6  2  0  0  0  0
  6  1  1  0  0  0  0
  4  7  1  0  0  0  0
  7  8  1  0  0  0  0
  8  9  1  0  0  0  0
  9 10  1  0  0  0  0
 10  5  1  0  0  0  0
  2 11  1  0  0  0  0
 11 12  1  0  0  0  0
 12 13  2  0  0  0  0
 13 14  1  0  0  0  0
 14 15  2  0  0  0  0
 15 16  1  0  0  0  0
 16 17  2  0  0  0  0
 17 12  1  0  0  0  0
 15 18  1  0  0  0  0
 18 19  1  0  0  0  0
 19 20  1  0  0  0  0
 20 21  1  0  0  0  0
 21 22  1  0  0  0  0
 22 23  1  0  0  0  0
 23 18  1  0  0  0  0
 21 24  1  0  0  0  0
  9 25  1  0  0  0  0
  7 26  1  0  0  0  0
 26 27  1  0  0  0  0
 27 28  2  0  0  0  0
 28 29  1  0  0  0  0
 29 30  2  0  0  0  0
 30 31  1  0  0  0  0
 31 32  2  0  0  0  0
 32 27  1  0  0  0  0
 30 33  1  0  0  0  0
 33 34  1  0  0  0  0
 34 35  1  0  0  0  0
 34 36  2  0  0  0  0
 35 37  2  0  0  0  0
  8 38  2  0  0  0  0
 25 39  2  0  0  0  0
 39 40  1  0  0  0  0
 40 41  2  0  0  0  0
 41 42  1  0  0  0  0
 42 43  2  0  0  0  0
 43 25  1  0  0  0  0
 42 44  1  0  0  0  0
 44 45  1  0  0  0  0
 40 46  1  0  0  0  0
 46 47  1  0  0  0  0
M  END
>  <Mol_ID> (544)
3047

>  <Formula> (544)
C35H38N8O4

>  <MolWeight> (544)
634.72742

>  <Cat> (544)
S7714

>  <Name> (544)
FIIN-2

>  <Synonyms> (544)
N/A

>  <Target> (544)
FGFR

>  <Form> (544)
Free Base

>  <CAS> (544)
1633044-56-0

>  <URL> (544)
http://www.selleckchem.com/products/fiin-2.html

$$$$
LM-3334 VX-509.cdx
csChFnd80/05071909292D

 28 30  0  0  0  0  0  0  0  0999 V2000
    0.0000    1.9429    0.0000 C   0  0  0  0  0  0  0  0  0  0  0  0
    0.9388    0.9043    0.0000 C   0  0  0  0  0  0  0  0  0  0  0  0
    2.3076    1.1980    0.0000 C   0  0  0  0  0  0  0  0  0  0  0  0
    2.7376    2.5302    0.0000 C   0  0  0  0  0  0  0  0  0  0  0  0
    1.7977    3.5696    0.0000 C   0  0  0  0  0  0  0  0  0  0  0  0
    0.4300    3.2752    0.0000 N   0  0  0  0  0  0  0  0  0  0  0  0
    4.0133    3.0983    0.0000 C   0  0  0  0  0  0  0  0  0  0  0  0
    3.8665    4.4941    0.0000 C   0  0  0  0  0  0  0  0  0  0  0  0
    2.4977    4.7821    0.0000 N   0  0  0  0  0  0  0  0  0  0  0  0
    5.2257    2.3983    0.0000 C   0  0  0  0  0  0  0  0  0  0  0  0
    5.2257    0.9946    0.0000 N   0  0  0  0  0  0  0  0  0  0  0  0
    6.4384    0.2945    0.0000 C   0  0  0  0  0  0  0  0  0  0  0  0
    7.6524    0.9954    0.0000 C   0  0  0  0  0  0  0  0  0  0  0  0
    7.6524    2.3946    0.0000 C   0  0  0  0  0  0  0  0  0  0  0  0
    6.4353    3.0973    0.0000 N   0  0  0  0  0  0  0  0  0  0  0  0
    8.8634    3.0938    0.0000 N   0  0  0  0  0  0  0  0  0  0  0  0
   10.0750    2.3943    0.0000 C   0  0  2  0  0  0  0  0  0  0  0  0
   11.2880    3.0947    0.0000 C   0  0  0  0  0  0  0  0  0  0  0  0
   10.9939    1.3384    0.0000 C   0  0  0  0  0  0  0  0  0  0  0  0
    9.1943    1.3070    0.0000 C   0  0  0  0  0  0  0  0  0  0  0  0
    9.6961    0.0000    0.0000 C   0  0  0  0  0  0  0  0  0  0  0  0
   12.4820    2.4053    0.0000 N   0  0  0  0  0  0  0  0  0  0  0  0
   11.2880    4.5159    0.0000 O   0  0  0  0  0  0  0  0  0  0  0  0
   13.7221    3.1213    0.0000 C   0  0  0  0  0  0  0  0  0  0  0  0
   14.9023    2.4399    0.0000 C   0  0  0  0  0  0  0  0  0  0  0  0
   16.1490    3.1597    0.0000 F   0  0  0  0  0  0  0  0  0  0  0  0
   14.0433    1.3917    0.0000 F   0  0  0  0  0  0  0  0  0  0  0  0
   15.8818    1.4605    0.0000 F   0  0  0  0  0  0  0  0  0  0  0  0
  1  2  2  0  0  0  0
  2  3  1  0  0  0  0
  3  4  2  0  0  0  0
  4  5  1  0  0  0  0
  5  6  2  0  0  0  0
  6  1  1  0  0  0  0
  4  7  1  0  0  0  0
  7  8  2  0  0  0  0
  8  9  1  0  0  0  0
  9  5  1  0  0  0  0
  7 10  1  0  0  0  0
 10 11  2  0  0  0  0
 11 12  1  0  0  0  0
 12 13  2  0  0  0  0
 13 14  1  0  0  0  0
 14 15  2  0  0  0  0
 15 10  1  0  0  0  0
 14 16  1  0  0  0  0
 16 17  1  0  0  0  0
 17 18  1  0  0  0  0
 17 19  1  0  0  0  0
 17 20  1  1  0  0  0
 20 21  1  0  0  0  0
 18 22  1  0  0  0  0
 18 23  2  0  0  0  0
 22 24  1  0  0  0  0
 24 25  1  0  0  0  0
 25 26  1  0  0  0  0
 25 27  1  0  0  0  0
 25 28  1  0  0  0  0
M  END
>  <Mol_ID> (545)
3062

>  <Formula> (545)
C18H19F3N6O

>  <MolWeight> (545)
392.3782696

>  <Cat> (545)
S7541

>  <Name> (545)
Decernotinib (VX-509)

>  <Synonyms> (545)
N/A

>  <Target> (545)
JAK

>  <Form> (545)
Free Base

>  <CAS> (545)
944842-54-0

>  <URL> (545)
http://www.selleckchem.com/products/decernotinib-vx-509.html

$$$$
VX-11e (VTX-11e, Vertex-11e).cdx
csChFnd80/05071909292D

 34 37  0  0  0  0  0  0  0  0999 V2000
    3.6373    7.7000    0.0000 N   0  0  0  0  0  0  0  0  0  0  0  0
    3.6373    6.3000    0.0000 C   0  0  0  0  0  0  0  0  0  0  0  0
    4.8497    5.6000    0.0000 N   0  0  0  0  0  0  0  0  0  0  0  0
    6.0622    6.3000    0.0000 C   0  0  0  0  0  0  0  0  0  0  0  0
    6.0622    7.7000    0.0000 C   0  0  0  0  0  0  0  0  0  0  0  0
    4.8497    8.4000    0.0000 C   0  0  0  0  0  0  0  0  0  0  0  0
    2.4249    5.6000    0.0000 N   0  0  0  0  0  0  0  0  0  0  0  0
    7.2746    8.4000    0.0000 C   0  0  0  0  0  0  0  0  0  0  0  0
    7.2746    5.6000    0.0000 C   0  0  0  0  0  0  0  0  0  0  0  0
    2.4249    4.2000    0.0000 C   0  0  0  0  0  0  0  0  0  0  0  0
    1.2124    3.5000    0.0000 C   0  0  0  0  0  0  0  0  0  0  0  0
    1.2124    2.1000    0.0000 C   0  0  0  0  0  0  0  0  0  0  0  0
    2.4249    1.4000    0.0000 C   0  0  0  0  0  0  0  0  0  0  0  0
    3.6373    2.1000    0.0000 C   0  0  0  0  0  0  0  0  0  0  0  0
    3.6373    3.5000    0.0000 C   0  0  0  0  0  0  0  0  0  0  0  0
    0.0000    4.2000    0.0000 Cl  0  0  0  0  0  0  0  0  0  0  0  0
    2.4249    0.0000    0.0000 F   0  0  0  0  0  0  0  0  0  0  0  0
    7.4210    4.2077    0.0000 C   0  0  0  0  0  0  0  0  0  0  0  0
    8.7904    3.9166    0.0000 N   0  0  0  0  0  0  0  0  0  0  0  0
    9.4904    5.1290    0.0000 C   0  0  0  0  0  0  0  0  0  0  0  0
    8.5536    6.1694    0.0000 C   0  0  0  0  0  0  0  0  0  0  0  0
   10.8827    5.2754    0.0000 C   0  0  0  0  0  0  0  0  0  0  0  0
   11.7056    4.1427    0.0000 N   0  0  0  0  0  0  0  0  0  0  0  0
   11.4521    6.5543    0.0000 O   0  0  0  0  0  0  0  0  0  0  0  0
   13.0979    4.2891    0.0000 C   0  0  1  0  0  0  0  0  0  0  0  0
   13.9208    3.1565    0.0000 C   0  0  0  0  0  0  0  0  0  0  0  0
   13.6674    5.5680    0.0000 C   0  0  0  0  0  0  0  0  0  0  0  0
   15.0597    5.7144    0.0000 O   0  0  0  0  0  0  0  0  0  0  0  0
   13.3514    1.8775    0.0000 C   0  0  0  0  0  0  0  0  0  0  0  0
   14.1743    0.7449    0.0000 C   0  0  0  0  0  0  0  0  0  0  0  0
   15.5666    0.8912    0.0000 C   0  0  0  0  0  0  0  0  0  0  0  0
   16.1360    2.1702    0.0000 C   0  0  0  0  0  0  0  0  0  0  0  0
   15.3131    3.3028    0.0000 C   0  0  0  0  0  0  0  0  0  0  0  0
   17.5284    2.3165    0.0000 Cl  0  0  0  0  0  0  0  0  0  0  0  0
  1  2  2  0  0  0  0
  2  3  1  0  0  0  0
  3  4  2  0  0  0  0
  4  5  1  0  0  0  0
  5  6  2  0  0  0  0
  6  1  1  0  0  0  0
  2  7  1  0  0  0  0
  5  8  1  0  0  0  0
  4  9  1  0  0  0  0
  7 10  1  0  0  0  0
 10 11  2  0  0  0  0
 11 12  1  0  0  0  0
 12 13  2  0  0  0  0
 13 14  1  0  0  0  0
 14 15  2  0  0  0  0
 15 10  1  0  0  0  0
 11 16  1  0  0  0  0
 13 17  1  0  0  0  0
  9 18  2  0  0  0  0
 18 19  1  0  0  0  0
 19 20  1  0  0  0  0
 20 21  2  0  0  0  0
 21  9  1  0  0  0  0
 20 22  1  0  0  0  0
 22 23  1  0  0  0  0
 22 24  2  0  0  0  0
 23 25  1  0  0  0  0
 25 26  1  0  0  0  0
 25 27  1  6  0  0  0
 27 28  1  0  0  0  0
 26 29  2  0  0  0  0
 29 30  1  0  0  0  0
 30 31  2  0  0  0  0
 31 32  1  0  0  0  0
 32 33  2  0  0  0  0
 33 26  1  0  0  0  0
 32 34  1  0  0  0  0
M  END
>  <Mol_ID> (546)
3063

>  <Formula> (546)
C24H20Cl2FN5O2

>  <MolWeight> (546)
500.3523032

>  <Cat> (546)
S7709

>  <Name> (546)
VX-11e

>  <Synonyms> (546)
VTX-11e, Vertex-11e

>  <Target> (546)
ERK

>  <Form> (546)
Free Base

>  <CAS> (546)
896720-20-0

>  <URL> (546)
http://www.selleckchem.com/products/vx-11e.html

$$$$
AZD3759.cdx
csChFnd80/05071909292D

 32 35  0  0  0  0  0  0  0  0999 V2000
    7.2746    3.5000    0.0000 C   0  0  0  0  0  0  0  0  0  0  0  0
    7.2746    2.1000    0.0000 C   0  0  0  0  0  0  0  0  0  0  0  0
    8.4870    1.4000    0.0000 C   0  0  0  0  0  0  0  0  0  0  0  0
    9.6995    2.1000    0.0000 C   0  0  0  0  0  0  0  0  0  0  0  0
    9.6995    3.5000    0.0000 C   0  0  0  0  0  0  0  0  0  0  0  0
    8.4870    4.2000    0.0000 C   0  0  0  0  0  0  0  0  0  0  0  0
   10.9119    1.4000    0.0000 N   0  0  0  0  0  0  0  0  0  0  0  0
   12.1244    2.1000    0.0000 C   0  0  0  0  0  0  0  0  0  0  0  0
   12.1244    3.5000    0.0000 N   0  0  0  0  0  0  0  0  0  0  0  0
   10.9119    4.2000    0.0000 C   0  0  0  0  0  0  0  0  0  0  0  0
    6.0622    4.2000    0.0000 O   0  0  0  0  0  0  0  0  0  0  0  0
    6.0622    1.4000    0.0000 O   0  0  0  0  0  0  0  0  0  0  0  0
    6.0622    0.0000    0.0000 C   0  0  0  0  0  0  0  0  0  0  0  0
    4.8497    3.5000    0.0000 C   0  0  0  0  0  0  0  0  0  0  0  0
    3.6373    4.2000    0.0000 N   0  0  0  0  0  0  0  0  0  0  0  0
    4.8497    2.1000    0.0000 O   0  0  0  0  0  0  0  0  0  0  0  0
    3.6373    5.6000    0.0000 C   0  0  1  0  0  0  0  0  0  0  0  0
    2.4249    6.3000    0.0000 C   0  0  0  0  0  0  0  0  0  0  0  0
    1.2124    5.6000    0.0000 N   0  0  0  0  0  0  0  0  0  0  0  0
    1.2124    4.2000    0.0000 C   0  0  0  0  0  0  0  0  0  0  0  0
    2.4249    3.5000    0.0000 C   0  0  0  0  0  0  0  0  0  0  0  0
    4.8497    6.3000    0.0000 C   0  0  0  0  0  0  0  0  0  0  0  0
    0.0000    6.3000    0.0000 C   0  0  0  0  0  0  0  0  0  0  0  0
   10.9119    5.6000    0.0000 N   0  0  0  0  0  0  0  0  0  0  0  0
   12.1244    6.3000    0.0000 C   0  0  0  0  0  0  0  0  0  0  0  0
   13.3368    5.6000    0.0000 C   0  0  0  0  0  0  0  0  0  0  0  0
   14.5492    6.3000    0.0000 C   0  0  0  0  0  0  0  0  0  0  0  0
   14.5492    7.7000    0.0000 C   0  0  0  0  0  0  0  0  0  0  0  0
   13.3368    8.4000    0.0000 C   0  0  0  0  0  0  0  0  0  0  0  0
   12.1244    7.7000    0.0000 C   0  0  0  0  0  0  0  0  0  0  0  0
   10.9119    8.4000    0.0000 F   0  0  0  0  0  0  0  0  0  0  0  0
   13.3368    9.8000    0.0000 Cl  0  0  0  0  0  0  0  0  0  0  0  0
  1  2  2  0  0  0  0
  2  3  1  0  0  0  0
  3  4  2  0  0  0  0
  4  5  1  0  0  0  0
  5  6  2  0  0  0  0
  6  1  1  0  0  0  0
  4  7  1  0  0  0  0
  7  8  2  0  0  0  0
  8  9  1  0  0  0  0
  9 10  2  0  0  0  0
 10  5  1  0  0  0  0
  1 11  1  0  0  0  0
  2 12  1  0  0  0  0
 12 13  1  0  0  0  0
 11 14  1  0  0  0  0
 14 15  1  0  0  0  0
 14 16  2  0  0  0  0
 15 17  1  0  0  0  0
 17 18  1  0  0  0  0
 18 19  1  0  0  0  0
 19 20  1  0  0  0  0
 20 21  1  0  0  0  0
 21 15  1  0  0  0  0
 17 22  1  1  0  0  0
 19 23  1  0  0  0  0
 10 24  1  0  0  0  0
 24 25  1  0  0  0  0
 25 26  2  0  0  0  0
 26 27  1  0  0  0  0
 27 28  2  0  0  0  0
 28 29  1  0  0  0  0
 29 30  2  0  0  0  0
 30 25  1  0  0  0  0
 30 31  1  0  0  0  0
 29 32  1  0  0  0  0
M  END
>  <Mol_ID> (547)
3065

>  <Formula> (547)
C22H23ClFN5O3

>  <MolWeight> (547)
459.9011232

>  <Cat> (547)
S7971

>  <Name> (547)
AZD3759

>  <Synonyms> (547)
N/A

>  <Target> (547)
EGFR

>  <Form> (547)
Free Base

>  <CAS> (547)
1626387-80-1

>  <URL> (547)
http://www.selleckchem.com/products/azd3759.html

$$$$
Voxtalisib (XL765, SAR245409).cdx
csChFnd80/05071909292D

 20 22  0  0  0  0  0  0  0  0999 V2000
    1.2124    4.2000    0.0000 N   0  0  0  0  0  0  0  0  0  0  0  0
    1.2124    2.8000    0.0000 C   0  0  0  0  0  0  0  0  0  0  0  0
    2.4249    2.1000    0.0000 N   0  0  0  0  0  0  0  0  0  0  0  0
    3.6373    2.8000    0.0000 C   0  0  0  0  0  0  0  0  0  0  0  0
    3.6373    4.2000    0.0000 C   0  0  0  0  0  0  0  0  0  0  0  0
    2.4249    4.9000    0.0000 C   0  0  0  0  0  0  0  0  0  0  0  0
    2.4249    6.3000    0.0000 C   0  0  0  0  0  0  0  0  0  0  0  0
    4.8497    2.1000    0.0000 N   0  0  0  0  0  0  0  0  0  0  0  0
    6.0622    2.8000    0.0000 C   0  0  0  0  0  0  0  0  0  0  0  0
    6.0622    4.2000    0.0000 C   0  0  0  0  0  0  0  0  0  0  0  0
    4.8497    4.9000    0.0000 C   0  0  0  0  0  0  0  0  0  0  0  0
    7.2746    2.1000    0.0000 O   0  0  0  0  0  0  0  0  0  0  0  0
    4.8497    0.7000    0.0000 C   0  0  0  0  0  0  0  0  0  0  0  0
    6.0622    0.0000    0.0000 C   0  0  0  0  0  0  0  0  0  0  0  0
    0.0000    2.1000    0.0000 N   0  0  0  0  0  0  0  0  0  0  0  0
    7.2746    4.9000    0.0000 C   0  0  0  0  0  0  0  0  0  0  0  0
    8.5536    4.3306    0.0000 C   0  0  0  0  0  0  0  0  0  0  0  0
    9.4904    5.3710    0.0000 C   0  0  0  0  0  0  0  0  0  0  0  0
    8.7904    6.5834    0.0000 N   0  0  0  0  0  0  0  0  0  0  0  0
    7.4210    6.2923    0.0000 N   0  0  0  0  0  0  0  0  0  0  0  0
  1  2  2  0  0  0  0
  2  3  1  0  0  0  0
  3  4  2  0  0  0  0
  4  5  1  0  0  0  0
  5  6  2  0  0  0  0
  6  1  1  0  0  0  0
  6  7  1  0  0  0  0
  4  8  1  0  0  0  0
  8  9  1  0  0  0  0
  9 10  1  0  0  0  0
 10 11  2  0  0  0  0
 11  5  1  0  0  0  0
  9 12  2  0  0  0  0
  8 13  1  0  0  0  0
 13 14  1  0  0  0  0
  2 15  1  0  0  0  0
 10 16  1  0  0  0  0
 16 17  2  0  0  0  0
 17 18  1  0  0  0  0
 18 19  2  0  0  0  0
 19 20  1  0  0  0  0
 20 16  1  0  0  0  0
M  END
>  <Mol_ID> (548)
3067

>  <Formula> (548)
C13H14N6O

>  <MolWeight> (548)
270.28986

>  <Cat> (548)
S7646

>  <Name> (548)
Voxtalisib (XL765, SAR245409)

>  <Synonyms> (548)
N/A

>  <Target> (548)
PI3K

>  <Form> (548)
Free Base

>  <CAS> (548)
934493-76-2

>  <URL> (548)
http://www.selleckchem.com/products/voxtalisib-xl765-sar245409.html

$$$$
PS-1145.cdx
csChFnd80/05071909292D

 23 26  0  0  0  0  0  0  0  0999 V2000
    0.0000    3.5000    0.0000 C   0  0  0  0  0  0  0  0  0  0  0  0
    0.0000    2.1000    0.0000 N   0  0  0  0  0  0  0  0  0  0  0  0
    1.2124    1.4000    0.0000 C   0  0  0  0  0  0  0  0  0  0  0  0
    2.4249    2.1000    0.0000 C   0  0  0  0  0  0  0  0  0  0  0  0
    2.4249    3.5000    0.0000 C   0  0  0  0  0  0  0  0  0  0  0  0
    1.2124    4.2000    0.0000 C   0  0  0  0  0  0  0  0  0  0  0  0
    3.6373    1.4000    0.0000 C   0  0  0  0  0  0  0  0  0  0  0  0
    4.8497    2.1000    0.0000 N   0  0  0  0  0  0  0  0  0  0  0  0
    3.6373    0.0000    0.0000 O   0  0  0  0  0  0  0  0  0  0  0  0
    4.8497    3.5000    0.0000 C   0  0  0  0  0  0  0  0  0  0  0  0
    6.0622    4.2000    0.0000 C   0  0  0  0  0  0  0  0  0  0  0  0
    6.0622    5.6000    0.0000 C   0  0  0  0  0  0  0  0  0  0  0  0
    4.8497    6.3000    0.0000 C   0  0  0  0  0  0  0  0  0  0  0  0
    3.6373    5.6000    0.0000 C   0  0  0  0  0  0  0  0  0  0  0  0
    3.6373    4.2000    0.0000 C   0  0  0  0  0  0  0  0  0  0  0  0
    7.3937    3.7674    0.0000 N   0  0  0  0  0  0  0  0  0  0  0  0
    8.2166    4.9000    0.0000 C   0  0  0  0  0  0  0  0  0  0  0  0
    7.3937    6.0326    0.0000 C   0  0  0  0  0  0  0  0  0  0  0  0
    9.6089    5.0463    0.0000 C   0  0  0  0  0  0  0  0  0  0  0  0
   10.1783    6.3253    0.0000 N   0  0  0  0  0  0  0  0  0  0  0  0
    9.3554    7.4579    0.0000 C   0  0  0  0  0  0  0  0  0  0  0  0
    7.9631    7.3116    0.0000 C   0  0  0  0  0  0  0  0  0  0  0  0
    2.4249    6.3000    0.0000 Cl  0  0  0  0  0  0  0  0  0  0  0  0
  1  2  2  0  0  0  0
  2  3  1  0  0  0  0
  3  4  2  0  0  0  0
  4  5  1  0  0  0  0
  5  6  2  0  0  0  0
  6  1  1  0  0  0  0
  4  7  1  0  0  0  0
  7  8  1  0  0  0  0
  7  9  2  0  0  0  0
  8 10  1  0  0  0  0
 10 11  2  0  0  0  0
 11 12  1  0  0  0  0
 12 13  2  0  0  0  0
 13 14  1  0  0  0  0
 14 15  2  0  0  0  0
 15 10  1  0  0  0  0
 11 16  1  0  0  0  0
 16 17  1  0  0  0  0
 17 18  2  0  0  0  0
 18 12  1  0  0  0  0
 17 19  1  0  0  0  0
 19 20  2  0  0  0  0
 20 21  1  0  0  0  0
 21 22  2  0  0  0  0
 22 18  1  0  0  0  0
 14 23  1  0  0  0  0
M  END
>  <Mol_ID> (549)
3069

>  <Formula> (549)
C17H11ClN4O

>  <MolWeight> (549)
322.74844

>  <Cat> (549)
S7691

>  <Name> (549)
PS-1145

>  <Synonyms> (549)
N/A

>  <Target> (549)
IB/IKK

>  <Form> (549)
Free base

>  <CAS> (549)
431898-65-6

>  <URL> (549)
http://www.selleckchem.com/products/ps-1145.html

$$$$
LJI308.cdx
csChFnd80/05071909292D

 27 30  0  0  0  0  0  0  0  0999 V2000
    0.7000    0.0000    0.0000 C   0  0  0  0  0  0  0  0  0  0  0  0
    2.1000    0.0000    0.0000 C   0  0  0  0  0  0  0  0  0  0  0  0
    2.8000    1.2124    0.0000 C   0  0  0  0  0  0  0  0  0  0  0  0
    2.1000    2.4249    0.0000 C   0  0  0  0  0  0  0  0  0  0  0  0
    0.7000    2.4249    0.0000 C   0  0  0  0  0  0  0  0  0  0  0  0
    0.0000    1.2124    0.0000 N   0  0  0  0  0  0  0  0  0  0  0  0
    2.7976    3.6331    0.0000 C   0  0  0  0  0  0  0  0  0  0  0  0
    4.1951    1.2124    0.0000 C   0  0  0  0  0  0  0  0  0  0  0  0
    4.1976    3.6331    0.0000 C   0  0  0  0  0  0  0  0  0  0  0  0
    4.8976    4.8455    0.0000 C   0  0  0  0  0  0  0  0  0  0  0  0
    4.1976    6.0580    0.0000 C   0  0  0  0  0  0  0  0  0  0  0  0
    2.7976    6.0580    0.0000 C   0  0  0  0  0  0  0  0  0  0  0  0
    2.0976    4.8455    0.0000 C   0  0  0  0  0  0  0  0  0  0  0  0
    4.8951    0.0000    0.0000 C   0  0  0  0  0  0  0  0  0  0  0  0
    6.2951    0.0000    0.0000 C   0  0  0  0  0  0  0  0  0  0  0  0
    6.9951    1.2124    0.0000 C   0  0  0  0  0  0  0  0  0  0  0  0
    6.2951    2.4249    0.0000 C   0  0  0  0  0  0  0  0  0  0  0  0
    4.8951    2.4249    0.0000 C   0  0  0  0  0  0  0  0  0  0  0  0
    2.1000    7.2662    0.0000 F   0  0  0  0  0  0  0  0  0  0  0  0
    4.8951    7.2662    0.0000 O   0  0  0  0  0  0  0  0  0  0  0  0
    6.2927    4.8455    0.0000 F   0  0  0  0  0  0  0  0  0  0  0  0
    8.3903    1.2124    0.0000 N   0  0  0  0  0  0  0  0  0  0  0  0
    9.0903    0.0000    0.0000 C   0  0  0  0  0  0  0  0  0  0  0  0
   10.4903    0.0000    0.0000 C   0  0  0  0  0  0  0  0  0  0  0  0
   11.1903    1.2124    0.0000 O   0  0  0  0  0  0  0  0  0  0  0  0
   10.4903    2.4249    0.0000 C   0  0  0  0  0  0  0  0  0  0  0  0
    9.0903    2.4249    0.0000 C   0  0  0  0  0  0  0  0  0  0  0  0
  1  2  2  0  0  0  0
  2  3  1  0  0  0  0
  3  4  2  0  0  0  0
  4  5  1  0  0  0  0
  5  6  2  0  0  0  0
  6  1  1  0  0  0  0
  4  7  1  0  0  0  0
  3  8  1  0  0  0  0
  7  9  2  0  0  0  0
  9 10  1  0  0  0  0
 10 11  2  0  0  0  0
 11 12  1  0  0  0  0
 12 13  2  0  0  0  0
 13  7  1  0  0  0  0
  8 14  2  0  0  0  0
 14 15  1  0  0  0  0
 15 16  2  0  0  0  0
 16 17  1  0  0  0  0
 17 18  2  0  0  0  0
 18  8  1  0  0  0  0
 12 19  1  0  0  0  0
 11 20  1  0  0  0  0
 10 21  1  0  0  0  0
 16 22  1  0  0  0  0
 22 23  1  0  0  0  0
 23 24  1  0  0  0  0
 24 25  1  0  0  0  0
 25 26  1  0  0  0  0
 26 27  1  0  0  0  0
 27 22  1  0  0  0  0
M  END
>  <Mol_ID> (550)
3072

>  <Formula> (550)
C21H18F2N2O2

>  <MolWeight> (550)
368.3766264

>  <Cat> (550)
S7871

>  <Name> (550)
LJI308

>  <Synonyms> (550)
N/A

>  <Target> (550)
S6 Kinase

>  <Form> (550)
Free Base

>  <CAS> (550)
1627709-94-7

>  <URL> (550)
http://www.selleckchem.com/products/lji308.html

$$$$
Radotinib (IY-5511).cdx
csChFnd80/05071909292D

 39 43  0  0  0  0  0  0  0  0999 V2000
    0.0000    4.9000    0.0000 C   0  0  0  0  0  0  0  0  0  0  0  0
    0.0000    3.5000    0.0000 C   0  0  0  0  0  0  0  0  0  0  0  0
    1.2124    2.8000    0.0000 N   0  0  0  0  0  0  0  0  0  0  0  0
    2.4249    3.5000    0.0000 C   0  0  0  0  0  0  0  0  0  0  0  0
    2.4249    4.9000    0.0000 C   0  0  0  0  0  0  0  0  0  0  0  0
    1.2124    5.6000    0.0000 N   0  0  0  0  0  0  0  0  0  0  0  0
    3.6373    5.6000    0.0000 C   0  0  0  0  0  0  0  0  0  0  0  0
    4.8497    4.9000    0.0000 N   0  0  0  0  0  0  0  0  0  0  0  0
    6.0622    5.6000    0.0000 C   0  0  0  0  0  0  0  0  0  0  0  0
    6.0622    7.0000    0.0000 N   0  0  0  0  0  0  0  0  0  0  0  0
    4.8497    7.7000    0.0000 C   0  0  0  0  0  0  0  0  0  0  0  0
    3.6373    7.0000    0.0000 C   0  0  0  0  0  0  0  0  0  0  0  0
    7.2746    4.9000    0.0000 N   0  0  0  0  0  0  0  0  0  0  0  0
    8.4870    5.6000    0.0000 C   0  0  0  0  0  0  0  0  0  0  0  0
    9.6995    4.9000    0.0000 C   0  0  0  0  0  0  0  0  0  0  0  0
   10.9119    5.6000    0.0000 C   0  0  0  0  0  0  0  0  0  0  0  0
   10.9119    7.0000    0.0000 C   0  0  0  0  0  0  0  0  0  0  0  0
    9.6995    7.7000    0.0000 C   0  0  0  0  0  0  0  0  0  0  0  0
    8.4870    7.0000    0.0000 C   0  0  0  0  0  0  0  0  0  0  0  0
    7.2746    7.7000    0.0000 C   0  0  0  0  0  0  0  0  0  0  0  0
   12.1244    4.9000    0.0000 C   0  0  0  0  0  0  0  0  0  0  0  0
   13.3368    5.6000    0.0000 N   0  0  0  0  0  0  0  0  0  0  0  0
   12.1244    3.5000    0.0000 O   0  0  0  0  0  0  0  0  0  0  0  0
   14.5492    4.9000    0.0000 C   0  0  0  0  0  0  0  0  0  0  0  0
   14.5492    3.5000    0.0000 C   0  0  0  0  0  0  0  0  0  0  0  0
   15.7617    2.8000    0.0000 C   0  0  0  0  0  0  0  0  0  0  0  0
   16.9741    3.5000    0.0000 C   0  0  0  0  0  0  0  0  0  0  0  0
   16.9741    4.9000    0.0000 C   0  0  0  0  0  0  0  0  0  0  0  0
   15.7617    5.6000    0.0000 C   0  0  0  0  0  0  0  0  0  0  0  0
   18.1865    5.6000    0.0000 N   0  0  0  0  0  0  0  0  0  0  0  0
   15.7617    1.4000    0.0000 C   0  0  0  0  0  0  0  0  0  0  0  0
   19.4655    5.0306    0.0000 C   0  0  0  0  0  0  0  0  0  0  0  0
   20.4023    6.0710    0.0000 C   0  0  0  0  0  0  0  0  0  0  0  0
   19.7023    7.2834    0.0000 N   0  0  0  0  0  0  0  0  0  0  0  0
   18.3329    6.9923    0.0000 C   0  0  0  0  0  0  0  0  0  0  0  0
   21.7946    5.9246    0.0000 C   0  0  0  0  0  0  0  0  0  0  0  0
   16.9699    0.7024    0.0000 F   0  0  0  0  0  0  0  0  0  0  0  0
   14.5534    0.7024    0.0000 F   0  0  0  0  0  0  0  0  0  0  0  0
   15.7617    0.0000    0.0000 F   0  0  0  0  0  0  0  0  0  0  0  0
  1  2  2  0  0  0  0
  2  3  1  0  0  0  0
  3  4  2  0  0  0  0
  4  5  1  0  0  0  0
  5  6  2  0  0  0  0
  6  1  1  0  0  0  0
  5  7  1  0  0  0  0
  7  8  2  0  0  0  0
  8  9  1  0  0  0  0
  9 10  2  0  0  0  0
 10 11  1  0  0  0  0
 11 12  2  0  0  0  0
 12  7  1  0  0  0  0
  9 13  1  0  0  0  0
 13 14  1  0  0  0  0
 14 15  2  0  0  0  0
 15 16  1  0  0  0  0
 16 17  2  0  0  0  0
 17 18  1  0  0  0  0
 18 19  2  0  0  0  0
 19 14  1  0  0  0  0
 19 20  1  0  0  0  0
 16 21  1  0  0  0  0
 21 22  1  0  0  0  0
 21 23  2  0  0  0  0
 22 24  1  0  0  0  0
 24 25  2  0  0  0  0
 25 26  1  0  0  0  0
 26 27  2  0  0  0  0
 27 28  1  0  0  0  0
 28 29  2  0  0  0  0
 29 24  1  0  0  0  0
 28 30  1  0  0  0  0
 26 31  1  0  0  0  0
 30 32  1  0  0  0  0
 32 33  2  0  0  0  0
 33 34  1  0  0  0  0
 34 35  2  0  0  0  0
 35 30  1  0  0  0  0
 33 36  1  0  0  0  0
 31 37  1  0  0  0  0
 31 38  1  0  0  0  0
 31 39  1  0  0  0  0
M  END
>  <Mol_ID> (551)
3074

>  <Formula> (551)
C27H21F3N8O

>  <MolWeight> (551)
530.5038496

>  <Cat> (551)
S8134

>  <Name> (551)
Radotinib

>  <Synonyms> (551)
IY-5511

>  <Target> (551)
Bcr-Abl

>  <Form> (551)
Free Base

>  <CAS> (551)
926037-48-1

>  <URL> (551)
http://www.selleckchem.com/products/radotinib.html

$$$$
Ripasudil (K-115) hydrochloride dihydrate.cdx
csChFnd80/05071909292D

 25 24  0  0  0  0  0  0  0  0999 V2000
    9.9244    2.1000    0.0000 C   0  0  0  0  0  0  0  0  0  0  0  0
    9.9244    0.7000    0.0000 N   0  0  0  0  0  0  0  0  0  0  0  0
   11.1369    0.0000    0.0000 C   0  0  0  0  0  0  0  0  0  0  0  0
   12.3493    0.7000    0.0000 C   0  0  0  0  0  0  0  0  0  0  0  0
   12.3493    2.1000    0.0000 C   0  0  0  0  0  0  0  0  0  0  0  0
   11.1369    2.8000    0.0000 C   0  0  0  0  0  0  0  0  0  0  0  0
   13.5617    0.0000    0.0000 C   0  0  0  0  0  0  0  0  0  0  0  0
   14.7742    0.7000    0.0000 C   0  0  0  0  0  0  0  0  0  0  0  0
   14.7742    2.1000    0.0000 C   0  0  0  0  0  0  0  0  0  0  0  0
   13.5617    2.8000    0.0000 C   0  0  0  0  0  0  0  0  0  0  0  0
   11.1369    4.2000    0.0000 F   0  0  0  0  0  0  0  0  0  0  0  0
   13.5617    4.2000    0.0000 S   0  0  0  0  0  0  0  0  0  0  0  0
   12.1617    4.2000    0.0000 O   0  0  0  0  0  0  0  0  0  0  0  0
   14.9617    4.2000    0.0000 O   0  0  0  0  0  0  0  0  0  0  0  0
   13.5617    5.6000    0.0000 N   0  0  0  0  0  0  0  0  0  0  0  0
   14.8231    6.2074    0.0000 C   0  0  0  0  0  0  0  0  0  0  0  0
   15.1346    7.5723    0.0000 C   0  0  0  0  0  0  0  0  0  0  0  0
   14.2617    8.6669    0.0000 C   0  0  0  0  0  0  0  0  0  0  0  0
   12.8617    8.6669    0.0000 N   0  0  0  0  0  0  0  0  0  0  0  0
   11.9889    7.5723    0.0000 C   0  0  0  0  0  0  0  0  0  0  0  0
   12.3004    6.2074    0.0000 C   0  0  2  0  0  0  0  0  0  0  0  0
   11.2058    5.3346    0.0000 C   0  0  0  0  0  0  0  0  0  0  0  0
   17.9497    3.4494    0.0000 Cl  0  0  0  0  0  0  0  0  0  0  0  0
    9.7222   26.6369    0.0000 O   0  0  0  0  0  0  0  0  0  0  0  0
    0.0000   26.6369    0.0000 O   0  0  0  0  0  0  0  0  0  0  0  0
  1  2  2  0  0  0  0
  2  3  1  0  0  0  0
  3  4  2  0  0  0  0
  4  5  1  0  0  0  0
  5  6  2  0  0  0  0
  6  1  1  0  0  0  0
  4  7  1  0  0  0  0
  7  8  2  0  0  0  0
  8  9  1  0  0  0  0
  9 10  2  0  0  0  0
 10  5  1  0  0  0  0
  6 11  1  0  0  0  0
 10 12  1  0  0  0  0
 12 13  2  0  0  0  0
 12 14  2  0  0  0  0
 12 15  1  0  0  0  0
 15 16  1  0  0  0  0
 16 17  1  0  0  0  0
 17 18  1  0  0  0  0
 18 19  1  0  0  0  0
 19 20  1  0  0  0  0
 20 21  1  0  0  0  0
 21 15  1  0  0  0  0
 21 22  1  1  0  0  0
M  END
>  <Mol_ID> (552)
3075

>  <Formula> (552)
C15H23ClFN3O4S

>  <MolWeight> (552)
395.8772232

>  <Cat> (552)
S7995

>  <Name> (552)
Ripasudil (K-115)

>  <Synonyms> (552)
N/A

>  <Target> (552)
ROCK

>  <Form> (552)
Hydrochloride dihydrate

>  <CAS> (552)
887375-67-9

>  <URL> (552)
http://www.selleckchem.com/products/ripasudil-k-115.html

$$$$
K03861.cdx
csChFnd80/05071909292D

 36 39  0  0  0  0  0  0  0  0999 V2000
    1.2124    2.1000    0.0000 C   0  0  0  0  0  0  0  0  0  0  0  0
    1.2124    0.7000    0.0000 N   0  0  0  0  0  0  0  0  0  0  0  0
    2.4249    0.0000    0.0000 C   0  0  0  0  0  0  0  0  0  0  0  0
    3.6373    0.7000    0.0000 C   0  0  0  0  0  0  0  0  0  0  0  0
    3.6373    2.1000    0.0000 C   0  0  0  0  0  0  0  0  0  0  0  0
    2.4249    2.8000    0.0000 N   0  0  0  0  0  0  0  0  0  0  0  0
    0.0000    2.8000    0.0000 N   0  0  0  0  0  0  0  0  0  0  0  0
    4.8497    2.8000    0.0000 O   0  0  0  0  0  0  0  0  0  0  0  0
    6.0622    2.1000    0.0000 C   0  0  0  0  0  0  0  0  0  0  0  0
    6.0622    0.7000    0.0000 C   0  0  0  0  0  0  0  0  0  0  0  0
    7.2746    0.0000    0.0000 C   0  0  0  0  0  0  0  0  0  0  0  0
    8.4870    0.7000    0.0000 C   0  0  0  0  0  0  0  0  0  0  0  0
    8.4870    2.1000    0.0000 C   0  0  0  0  0  0  0  0  0  0  0  0
    7.2746    2.8000    0.0000 C   0  0  0  0  0  0  0  0  0  0  0  0
    9.6995    0.0000    0.0000 N   0  0  0  0  0  0  0  0  0  0  0  0
   10.9119    0.7000    0.0000 C   0  0  0  0  0  0  0  0  0  0  0  0
   12.1244    0.0000    0.0000 N   0  0  0  0  0  0  0  0  0  0  0  0
   10.9119    2.1000    0.0000 O   0  0  0  0  0  0  0  0  0  0  0  0
   13.3368    0.7000    0.0000 C   0  0  0  0  0  0  0  0  0  0  0  0
   14.5492    0.0000    0.0000 C   0  0  0  0  0  0  0  0  0  0  0  0
   15.7617    0.7000    0.0000 C   0  0  0  0  0  0  0  0  0  0  0  0
   15.7617    2.1000    0.0000 C   0  0  0  0  0  0  0  0  0  0  0  0
   14.5492    2.8000    0.0000 C   0  0  0  0  0  0  0  0  0  0  0  0
   13.3368    2.1000    0.0000 C   0  0  0  0  0  0  0  0  0  0  0  0
   16.9741    2.8000    0.0000 C   0  0  0  0  0  0  0  0  0  0  0  0
   18.1865    2.1000    0.0000 N   0  0  0  0  0  0  0  0  0  0  0  0
   18.1865    0.7000    0.0000 C   0  0  0  0  0  0  0  0  0  0  0  0
   19.3990    0.0000    0.0000 C   0  0  0  0  0  0  0  0  0  0  0  0
   20.6114    0.7000    0.0000 N   0  0  0  0  0  0  0  0  0  0  0  0
   20.6114    2.1000    0.0000 C   0  0  0  0  0  0  0  0  0  0  0  0
   19.3990    2.8000    0.0000 C   0  0  0  0  0  0  0  0  0  0  0  0
   21.8238    0.0000    0.0000 C   0  0  0  0  0  0  0  0  0  0  0  0
   14.5492    4.2000    0.0000 C   0  0  0  0  0  0  0  0  0  0  0  0
   13.3368    4.9000    0.0000 F   0  0  0  0  0  0  0  0  0  0  0  0
   15.7617    4.9000    0.0000 F   0  0  0  0  0  0  0  0  0  0  0  0
   14.5492    5.6000    0.0000 F   0  0  0  0  0  0  0  0  0  0  0  0
  1  2  2  0  0  0  0
  2  3  1  0  0  0  0
  3  4  2  0  0  0  0
  4  5  1  0  0  0  0
  5  6  2  0  0  0  0
  6  1  1  0  0  0  0
  1  7  1  0  0  0  0
  5  8  1  0  0  0  0
  8  9  1  0  0  0  0
  9 10  2  0  0  0  0
 10 11  1  0  0  0  0
 11 12  2  0  0  0  0
 12 13  1  0  0  0  0
 13 14  2  0  0  0  0
 14  9  1  0  0  0  0
 12 15  1  0  0  0  0
 15 16  1  0  0  0  0
 16 17  1  0  0  0  0
 16 18  2  0  0  0  0
 17 19  1  0  0  0  0
 19 20  2  0  0  0  0
 20 21  1  0  0  0  0
 21 22  2  0  0  0  0
 22 23  1  0  0  0  0
 23 24  2  0  0  0  0
 24 19  1  0  0  0  0
 22 25  1  0  0  0  0
 25 26  1  0  0  0  0
 26 27  1  0  0  0  0
 27 28  1  0  0  0  0
 28 29  1  0  0  0  0
 29 30  1  0  0  0  0
 30 31  1  0  0  0  0
 31 26  1  0  0  0  0
 29 32  1  0  0  0  0
 23 33  1  0  0  0  0
 33 34  1  0  0  0  0
 33 35  1  0  0  0  0
 33 36  1  0  0  0  0
M  END
>  <Mol_ID> (553)
3077

>  <Formula> (553)
C24H26F3N7O2

>  <MolWeight> (553)
501.5041496

>  <Cat> (553)
S8100

>  <Name> (553)
K03861

>  <Synonyms> (553)
N/A

>  <Target> (553)
CDK

>  <Form> (553)
Free Base

>  <CAS> (553)
853299-07-7

>  <URL> (553)
http://www.selleckchem.com/products/k03861.html

$$$$
GNF-7.cdx
csChFnd80/05071909292D

 40 44  0  0  0  0  0  0  0  0999 V2000
    2.4249    7.7000    0.0000 N   0  0  0  0  0  0  0  0  0  0  0  0
    2.4249    6.3000    0.0000 C   0  0  0  0  0  0  0  0  0  0  0  0
    3.6373    5.6000    0.0000 N   0  0  0  0  0  0  0  0  0  0  0  0
    4.8497    6.3000    0.0000 C   0  0  0  0  0  0  0  0  0  0  0  0
    4.8497    7.7000    0.0000 C   0  0  0  0  0  0  0  0  0  0  0  0
    3.6373    8.4000    0.0000 C   0  0  0  0  0  0  0  0  0  0  0  0
    6.0622    5.6000    0.0000 N   0  0  0  0  0  0  0  0  0  0  0  0
    7.2746    6.3000    0.0000 C   0  0  0  0  0  0  0  0  0  0  0  0
    7.2746    7.7000    0.0000 N   0  0  0  0  0  0  0  0  0  0  0  0
    6.0622    8.4000    0.0000 C   0  0  0  0  0  0  0  0  0  0  0  0
    1.2124    5.6000    0.0000 N   0  0  0  0  0  0  0  0  0  0  0  0
    1.2124    4.2000    0.0000 C   0  0  0  0  0  0  0  0  0  0  0  0
    0.0000    3.5000    0.0000 C   0  0  0  0  0  0  0  0  0  0  0  0
    0.0000    2.1000    0.0000 C   0  0  0  0  0  0  0  0  0  0  0  0
    1.2124    1.4000    0.0000 C   0  0  0  0  0  0  0  0  0  0  0  0
    2.4249    2.1000    0.0000 N   0  0  0  0  0  0  0  0  0  0  0  0
    2.4249    3.5000    0.0000 C   0  0  0  0  0  0  0  0  0  0  0  0
    1.2124    0.0000    0.0000 C   0  0  0  0  0  0  0  0  0  0  0  0
    6.0622    4.2000    0.0000 C   0  0  0  0  0  0  0  0  0  0  0  0
    8.4870    5.6000    0.0000 O   0  0  0  0  0  0  0  0  0  0  0  0
    8.4870    8.4000    0.0000 C   0  0  0  0  0  0  0  0  0  0  0  0
    9.6995    7.7000    0.0000 C   0  0  0  0  0  0  0  0  0  0  0  0
   10.9119    8.4000    0.0000 C   0  0  0  0  0  0  0  0  0  0  0  0
   10.9119    9.8000    0.0000 C   0  0  0  0  0  0  0  0  0  0  0  0
    9.6995   10.5000    0.0000 C   0  0  0  0  0  0  0  0  0  0  0  0
    8.4870    9.8000    0.0000 C   0  0  0  0  0  0  0  0  0  0  0  0
    7.2746   10.5000    0.0000 C   0  0  0  0  0  0  0  0  0  0  0  0
   12.1244    7.7000    0.0000 N   0  0  0  0  0  0  0  0  0  0  0  0
   13.3368    8.4000    0.0000 C   0  0  0  0  0  0  0  0  0  0  0  0
   14.5492    7.7000    0.0000 C   0  0  0  0  0  0  0  0  0  0  0  0
   13.3368    9.8000    0.0000 O   0  0  0  0  0  0  0  0  0  0  0  0
   14.5492    6.3000    0.0000 C   0  0  0  0  0  0  0  0  0  0  0  0
   15.7617    5.6000    0.0000 C   0  0  0  0  0  0  0  0  0  0  0  0
   16.9741    6.3000    0.0000 C   0  0  0  0  0  0  0  0  0  0  0  0
   16.9741    7.7000    0.0000 C   0  0  0  0  0  0  0  0  0  0  0  0
   15.7617    8.4000    0.0000 C   0  0  0  0  0  0  0  0  0  0  0  0
   18.1865    8.4000    0.0000 C   0  0  0  0  0  0  0  0  0  0  0  0
   19.3990    7.7000    0.0000 F   0  0  0  0  0  0  0  0  0  0  0  0
   18.1865    9.8000    0.0000 F   0  0  0  0  0  0  0  0  0  0  0  0
   19.3990    9.1000    0.0000 F   0  0  0  0  0  0  0  0  0  0  0  0
  1  2  2  0  0  0  0
  2  3  1  0  0  0  0
  3  4  2  0  0  0  0
  4  5  1  0  0  0  0
  5  6  2  0  0  0  0
  6  1  1  0  0  0  0
  4  7  1  0  0  0  0
  7  8  1  0  0  0  0
  8  9  1  0  0  0  0
  9 10  1  0  0  0  0
 10  5  1  0  0  0  0
  2 11  1  0  0  0  0
 11 12  1  0  0  0  0
 12 13  2  0  0  0  0
 13 14  1  0  0  0  0
 14 15  2  0  0  0  0
 15 16  1  0  0  0  0
 16 17  2  0  0  0  0
 17 12  1  0  0  0  0
 15 18  1  0  0  0  0
  7 19  1  0  0  0  0
  8 20  2  0  0  0  0
  9 21  1  0  0  0  0
 21 22  2  0  0  0  0
 22 23  1  0  0  0  0
 23 24  2  0  0  0  0
 24 25  1  0  0  0  0
 25 26  2  0  0  0  0
 26 21  1  0  0  0  0
 26 27  1  0  0  0  0
 23 28  1  0  0  0  0
 28 29  1  0  0  0  0
 29 30  1  0  0  0  0
 29 31  2  0  0  0  0
 30 32  2  0  0  0  0
 32 33  1  0  0  0  0
 33 34  2  0  0  0  0
 34 35  1  0  0  0  0
 35 36  2  0  0  0  0
 36 30  1  0  0  0  0
 35 37  1  0  0  0  0
 37 38  1  0  0  0  0
 37 39  1  0  0  0  0
 37 40  1  0  0  0  0
M  END
>  <Mol_ID> (554)
3080

>  <Formula> (554)
C28H24F3N7O2

>  <MolWeight> (554)
547.5310696

>  <Cat> (554)
S8140

>  <Name> (554)
GNF-7

>  <Synonyms> (554)
N/A

>  <Target> (554)
Bcr-Abl

>  <Form> (554)
Free Base

>  <CAS> (554)
839706-07-9

>  <URL> (554)
http://www.selleckchem.com/products/gnf-7.html

$$$$
KD025 (SLx-2119).cdx
csChFnd80/05071909292D

 34 38  0  0  0  0  0  0  0  0999 V2000
    0.0000    4.2000    0.0000 C   0  0  0  0  0  0  0  0  0  0  0  0
    0.0000    2.8000    0.0000 C   0  0  0  0  0  0  0  0  0  0  0  0
    1.2124    2.1000    0.0000 C   0  0  0  0  0  0  0  0  0  0  0  0
    2.4249    2.8000    0.0000 C   0  0  0  0  0  0  0  0  0  0  0  0
    2.4249    4.2000    0.0000 C   0  0  0  0  0  0  0  0  0  0  0  0
    1.2124    4.9000    0.0000 C   0  0  0  0  0  0  0  0  0  0  0  0
    3.6373    2.1000    0.0000 N   0  0  0  0  0  0  0  0  0  0  0  0
    4.8497    2.8000    0.0000 C   0  0  0  0  0  0  0  0  0  0  0  0
    4.8497    4.2000    0.0000 N   0  0  0  0  0  0  0  0  0  0  0  0
    3.6373    4.9000    0.0000 C   0  0  0  0  0  0  0  0  0  0  0  0
    3.6373    6.3000    0.0000 N   0  0  0  0  0  0  0  0  0  0  0  0
    4.8497    7.0000    0.0000 C   0  0  0  0  0  0  0  0  0  0  0  0
    6.0622    6.3000    0.0000 C   0  0  0  0  0  0  0  0  0  0  0  0
    7.2746    7.0000    0.0000 C   0  0  0  0  0  0  0  0  0  0  0  0
    7.2746    8.4000    0.0000 C   0  0  0  0  0  0  0  0  0  0  0  0
    6.0622    9.1000    0.0000 C   0  0  0  0  0  0  0  0  0  0  0  0
    4.8497    8.4000    0.0000 C   0  0  0  0  0  0  0  0  0  0  0  0
    8.6061    6.5674    0.0000 C   0  0  0  0  0  0  0  0  0  0  0  0
    9.4290    7.7000    0.0000 N   0  0  0  0  0  0  0  0  0  0  0  0
    8.6061    8.8326    0.0000 N   0  0  0  0  0  0  0  0  0  0  0  0
    6.0622    2.1000    0.0000 C   0  0  0  0  0  0  0  0  0  0  0  0
    6.0622    0.7000    0.0000 C   0  0  0  0  0  0  0  0  0  0  0  0
    7.2746    0.0000    0.0000 C   0  0  0  0  0  0  0  0  0  0  0  0
    8.4870    0.7000    0.0000 C   0  0  0  0  0  0  0  0  0  0  0  0
    8.4870    2.1000    0.0000 C   0  0  0  0  0  0  0  0  0  0  0  0
    7.2746    2.8000    0.0000 C   0  0  0  0  0  0  0  0  0  0  0  0
    9.6995    2.8000    0.0000 O   0  0  0  0  0  0  0  0  0  0  0  0
   10.9119    2.1000    0.0000 C   0  0  0  0  0  0  0  0  0  0  0  0
   12.1244    2.8000    0.0000 C   0  0  0  0  0  0  0  0  0  0  0  0
   13.3368    2.1000    0.0000 N   0  0  0  0  0  0  0  0  0  0  0  0
   12.1244    4.2000    0.0000 O   0  0  0  0  0  0  0  0  0  0  0  0
   14.5492    2.8000    0.0000 C   0  0  0  0  0  0  0  0  0  0  0  0
   15.7617    2.1000    0.0000 C   0  0  0  0  0  0  0  0  0  0  0  0
   14.5492    4.2000    0.0000 C   0  0  0  0  0  0  0  0  0  0  0  0
  1  2  2  0  0  0  0
  2  3  1  0  0  0  0
  3  4  2  0  0  0  0
  4  5  1  0  0  0  0
  5  6  2  0  0  0  0
  6  1  1  0  0  0  0
  4  7  1  0  0  0  0
  7  8  2  0  0  0  0
  8  9  1  0  0  0  0
  9 10  2  0  0  0  0
 10  5  1  0  0  0  0
 10 11  1  0  0  0  0
 11 12  1  0  0  0  0
 12 13  2  0  0  0  0
 13 14  1  0  0  0  0
 14 15  2  0  0  0  0
 15 16  1  0  0  0  0
 16 17  2  0  0  0  0
 17 12  1  0  0  0  0
 14 18  1  0  0  0  0
 18 19  2  0  0  0  0
 19 20  1  0  0  0  0
 20 15  1  0  0  0  0
  8 21  1  0  0  0  0
 21 22  2  0  0  0  0
 22 23  1  0  0  0  0
 23 24  2  0  0  0  0
 24 25  1  0  0  0  0
 25 26  2  0  0  0  0
 26 21  1  0  0  0  0
 25 27  1  0  0  0  0
 27 28  1  0  0  0  0
 28 29  1  0  0  0  0
 29 30  1  0  0  0  0
 29 31  2  0  0  0  0
 30 32  1  0  0  0  0
 32 33  1  0  0  0  0
 32 34  1  0  0  0  0
M  END
>  <Mol_ID> (555)
3086

>  <Formula> (555)
C26H24N6O2

>  <MolWeight> (555)
452.50776

>  <Cat> (555)
S7936

>  <Name> (555)
KD025 (SLx-2119)

>  <Synonyms> (555)
N/A

>  <Target> (555)
ROCK

>  <Form> (555)
Free Base

>  <CAS> (555)
911417-87-3

>  <URL> (555)
http://www.selleckchem.com/products/kd025-(slx-2119).html

$$$$
Mirin.cdx
csChFnd80/05071909292D

 15 16  0  0  0  0  0  0  0  0999 V2000
    0.8229    1.9830    0.0000 C   0  0  0  0  0  0  0  0  0  0  0  0
    2.2229    1.9830    0.0000 S   0  0  0  0  0  0  0  0  0  0  0  0
    2.6555    3.3145    0.0000 C   0  0  0  0  0  0  0  0  0  0  0  0
    1.5229    4.1374    0.0000 C   0  0  0  0  0  0  0  0  0  0  0  0
    0.3903    3.3145    0.0000 N   0  0  0  0  0  0  0  0  0  0  0  0
    1.5229    5.5374    0.0000 O   0  0  0  0  0  0  0  0  0  0  0  0
    0.0000    0.8504    0.0000 N   0  0  0  0  0  0  0  0  0  0  0  0
    3.9870    3.7471    0.0000 C   0  0  0  0  0  0  0  0  0  0  0  0
    5.0274    2.8103    0.0000 C   0  0  0  0  0  0  0  0  0  0  0  0
    4.7363    1.4409    0.0000 C   0  0  0  0  0  0  0  0  0  0  0  0
    5.7767    0.5042    0.0000 C   0  0  0  0  0  0  0  0  0  0  0  0
    7.1082    0.9368    0.0000 C   0  0  0  0  0  0  0  0  0  0  0  0
    7.3993    2.3062    0.0000 C   0  0  0  0  0  0  0  0  0  0  0  0
    6.3589    3.2430    0.0000 C   0  0  0  0  0  0  0  0  0  0  0  0
    8.1486    0.0000    0.0000 O   0  0  0  0  0  0  0  0  0  0  0  0
  1  2  1  0  0  0  0
  2  3  1  0  0  0  0
  3  4  1  0  0  0  0
  4  5  1  0  0  0  0
  5  1  1  0  0  0  0
  4  6  2  0  0  0  0
  1  7  2  0  0  0  0
  3  8  2  0  0  0  0
  8  9  1  0  0  0  0
  9 10  2  0  0  0  0
 10 11  1  0  0  0  0
 11 12  2  0  0  0  0
 12 13  1  0  0  0  0
 13 14  2  0  0  0  0
 14  9  1  0  0  0  0
 12 15  1  0  0  0  0
M  END
>  <Mol_ID> (556)
3088

>  <Formula> (556)
C10H8N2O2S

>  <MolWeight> (556)
220.24772

>  <Cat> (556)
S8096

>  <Name> (556)
Mirin

>  <Synonyms> (556)
N/A

>  <Target> (556)
ATM/ATR

>  <Form> (556)
Free Base

>  <CAS> (556)
1198097-97-0

>  <URL> (556)
http://www.selleckchem.com/products/mirin.html

$$$$
CC-223.cdx
csChFnd80/05071909292D

 29 32  0  0  0  0  0  0  0  0999 V2000
    2.4249    4.2000    0.0000 C   0  0  0  0  0  0  0  0  0  0  0  0
    2.4249    2.8000    0.0000 N   0  0  0  0  0  0  0  0  0  0  0  0
    3.6373    2.1000    0.0000 C   0  0  0  0  0  0  0  0  0  0  0  0
    4.8497    2.8000    0.0000 C   0  0  0  0  0  0  0  0  0  0  0  0
    4.8497    4.2000    0.0000 C   0  0  0  0  0  0  0  0  0  0  0  0
    3.6373    4.9000    0.0000 C   0  0  0  0  0  0  0  0  0  0  0  0
    1.2124    4.9000    0.0000 C   0  0  0  0  0  0  0  0  0  0  0  0
    6.0622    2.1000    0.0000 C   0  0  0  0  0  0  0  0  0  0  0  0
    6.0622    0.7000    0.0000 C   0  0  0  0  0  0  0  0  0  0  0  0
    7.2746    0.0000    0.0000 N   0  0  0  0  0  0  0  0  0  0  0  0
    8.4870    0.7000    0.0000 C   0  0  0  0  0  0  0  0  0  0  0  0
    8.4870    2.1000    0.0000 C   0  0  0  0  0  0  0  0  0  0  0  0
    7.2746    2.8000    0.0000 N   0  0  0  0  0  0  0  0  0  0  0  0
    9.6995    0.0000    0.0000 N   0  0  0  0  0  0  0  0  0  0  0  0
   10.9119    0.7000    0.0000 C   0  0  0  0  0  0  0  0  0  0  0  0
   10.9119    2.1000    0.0000 C   0  0  0  0  0  0  0  0  0  0  0  0
    9.6995    2.8000    0.0000 N   0  0  0  0  0  0  0  0  0  0  0  0
    0.0000    4.2000    0.0000 O   0  0  0  0  0  0  0  0  0  0  0  0
    1.2124    6.3000    0.0000 C   0  0  0  0  0  0  0  0  0  0  0  0
    2.4249    5.6000    0.0000 C   0  0  0  0  0  0  0  0  0  0  0  0
   12.1244    2.8000    0.0000 O   0  0  0  0  0  0  0  0  0  0  0  0
    9.6995    4.2000    0.0000 C   0  0  2  0  0  0  0  0  0  0  0  0
   10.9119    4.9000    0.0000 C   0  0  0  0  0  0  0  0  0  0  0  0
   10.9119    6.3000    0.0000 C   0  0  0  0  0  0  0  0  0  0  0  0
    9.6995    7.0000    0.0000 C   0  0  2  0  0  0  0  0  0  0  0  0
    8.4870    6.3000    0.0000 C   0  0  0  0  0  0  0  0  0  0  0  0
    8.4870    4.9000    0.0000 C   0  0  0  0  0  0  0  0  0  0  0  0
    9.6995    8.4000    0.0000 O   0  0  0  0  0  0  0  0  0  0  0  0
    8.4870    9.1000    0.0000 C   0  0  0  0  0  0  0  0  0  0  0  0
  1  2  2  0  0  0  0
  2  3  1  0  0  0  0
  3  4  2  0  0  0  0
  4  5  1  0  0  0  0
  5  6  2  0  0  0  0
  6  1  1  0  0  0  0
  1  7  1  0  0  0  0
  4  8  1  0  0  0  0
  8  9  2  0  0  0  0
  9 10  1  0  0  0  0
 10 11  2  0  0  0  0
 11 12  1  0  0  0  0
 12 13  2  0  0  0  0
 13  8  1  0  0  0  0
 11 14  1  0  0  0  0
 14 15  1  0  0  0  0
 15 16  1  0  0  0  0
 16 17  1  0  0  0  0
 17 12  1  0  0  0  0
  7 18  1  0  0  0  0
  7 19  1  0  0  0  0
  7 20  1  0  0  0  0
 16 21  2  0  0  0  0
 22 17  1  1  0  0  0
 22 23  1  0  0  0  0
 23 24  1  0  0  0  0
 24 25  1  0  0  0  0
 25 26  1  0  0  0  0
 26 27  1  0  0  0  0
 27 22  1  0  0  0  0
 25 28  1  6  0  0  0
 28 29  1  0  0  0  0
M  END
>  <Mol_ID> (557)
3096

>  <Formula> (557)
C21H27N5O3

>  <MolWeight> (557)
397.47078

>  <Cat> (557)
S7886

>  <Name> (557)
CC-223

>  <Synonyms> (557)
N/A

>  <Target> (557)
mTOR

>  <Form> (557)
Free Base

>  <CAS> (557)
1228013-30-6

>  <URL> (557)
http://www.selleckchem.com/products/cc-223.html

$$$$
LJH685.cdx
csChFnd80/05071909292D

 28 31  0  0  0  0  0  0  0  0999 V2000
    0.7000    0.0000    0.0000 C   0  0  0  0  0  0  0  0  0  0  0  0
    2.1000    0.0000    0.0000 C   0  0  0  0  0  0  0  0  0  0  0  0
    2.8000    1.2124    0.0000 C   0  0  0  0  0  0  0  0  0  0  0  0
    2.1000    2.4249    0.0000 C   0  0  0  0  0  0  0  0  0  0  0  0
    0.7000    2.4249    0.0000 C   0  0  0  0  0  0  0  0  0  0  0  0
    0.0000    1.2124    0.0000 N   0  0  0  0  0  0  0  0  0  0  0  0
    2.7976    3.6331    0.0000 C   0  0  0  0  0  0  0  0  0  0  0  0
    4.1951    1.2124    0.0000 C   0  0  0  0  0  0  0  0  0  0  0  0
    4.1976    3.6331    0.0000 C   0  0  0  0  0  0  0  0  0  0  0  0
    4.8976    4.8455    0.0000 C   0  0  0  0  0  0  0  0  0  0  0  0
    4.1976    6.0580    0.0000 C   0  0  0  0  0  0  0  0  0  0  0  0
    2.7976    6.0580    0.0000 C   0  0  0  0  0  0  0  0  0  0  0  0
    2.0976    4.8455    0.0000 C   0  0  0  0  0  0  0  0  0  0  0  0
    4.8951    0.0000    0.0000 C   0  0  0  0  0  0  0  0  0  0  0  0
    6.2951    0.0000    0.0000 C   0  0  0  0  0  0  0  0  0  0  0  0
    6.9951    1.2124    0.0000 C   0  0  0  0  0  0  0  0  0  0  0  0
    6.2951    2.4249    0.0000 C   0  0  0  0  0  0  0  0  0  0  0  0
    4.8951    2.4249    0.0000 C   0  0  0  0  0  0  0  0  0  0  0  0
    2.1000    7.2662    0.0000 F   0  0  0  0  0  0  0  0  0  0  0  0
    4.8951    7.2662    0.0000 O   0  0  0  0  0  0  0  0  0  0  0  0
    6.2927    4.8455    0.0000 F   0  0  0  0  0  0  0  0  0  0  0  0
    8.3903    1.2124    0.0000 N   0  0  0  0  0  0  0  0  0  0  0  0
    9.0903    0.0000    0.0000 C   0  0  0  0  0  0  0  0  0  0  0  0
   10.4903    0.0000    0.0000 C   0  0  0  0  0  0  0  0  0  0  0  0
   11.1903    1.2124    0.0000 N   0  0  0  0  0  0  0  0  0  0  0  0
   10.4903    2.4249    0.0000 C   0  0  0  0  0  0  0  0  0  0  0  0
    9.0903    2.4249    0.0000 C   0  0  0  0  0  0  0  0  0  0  0  0
   12.5854    1.2124    0.0000 C   0  0  0  0  0  0  0  0  0  0  0  0
  1  2  2  0  0  0  0
  2  3  1  0  0  0  0
  3  4  2  0  0  0  0
  4  5  1  0  0  0  0
  5  6  2  0  0  0  0
  6  1  1  0  0  0  0
  4  7  1  0  0  0  0
  3  8  1  0  0  0  0
  7  9  2  0  0  0  0
  9 10  1  0  0  0  0
 10 11  2  0  0  0  0
 11 12  1  0  0  0  0
 12 13  2  0  0  0  0
 13  7  1  0  0  0  0
  8 14  2  0  0  0  0
 14 15  1  0  0  0  0
 15 16  2  0  0  0  0
 16 17  1  0  0  0  0
 17 18  2  0  0  0  0
 18  8  1  0  0  0  0
 12 19  1  0  0  0  0
 11 20  1  0  0  0  0
 10 21  1  0  0  0  0
 16 22  1  0  0  0  0
 22 23  1  0  0  0  0
 23 24  1  0  0  0  0
 24 25  1  0  0  0  0
 25 26  1  0  0  0  0
 26 27  1  0  0  0  0
 27 22  1  0  0  0  0
 25 28  1  0  0  0  0
M  END
>  <Mol_ID> (558)
3103

>  <Formula> (558)
C22H21F2N3O

>  <MolWeight> (558)
381.4184464

>  <Cat> (558)
S7870

>  <Name> (558)
LJH685

>  <Synonyms> (558)
N/A

>  <Target> (558)
S6 Kinase

>  <Form> (558)
Free Base

>  <CAS> (558)
1627710-50-2

>  <URL> (558)
http://www.selleckchem.com/products/ljh685.html

$$$$
GSK2141795.cdx
csChFnd80/05071909292D

 28 30  0  0  0  0  0  0  0  0999 V2000
    8.1323    6.3000    0.0000 C   0  0  0  0  0  0  0  0  0  0  0  0
    8.1323    4.9000    0.0000 C   0  0  0  0  0  0  0  0  0  0  0  0
    9.3447    4.2000    0.0000 C   0  0  0  0  0  0  0  0  0  0  0  0
   10.5572    4.9000    0.0000 C   0  0  0  0  0  0  0  0  0  0  0  0
   10.5572    6.3000    0.0000 C   0  0  0  0  0  0  0  0  0  0  0  0
    9.3447    7.0000    0.0000 C   0  0  0  0  0  0  0  0  0  0  0  0
    9.3447    8.4000    0.0000 F   0  0  0  0  0  0  0  0  0  0  0  0
   11.7696    7.0000    0.0000 F   0  0  0  0  0  0  0  0  0  0  0  0
    9.3447    2.8000    0.0000 C   0  0  0  0  0  0  0  0  0  0  0  0
    8.1323    2.1000    0.0000 C   0  0  2  0  0  0  0  0  0  0  0  0
    6.9199    2.8000    0.0000 N   0  0  0  0  0  0  0  0  0  0  0  0
    8.1323    0.7000    0.0000 C   0  0  0  0  0  0  0  0  0  0  0  0
    9.3447    0.0000    0.0000 N   0  0  0  0  0  0  0  0  0  0  0  0
    5.7074    2.1000    0.0000 C   0  0  0  0  0  0  0  0  0  0  0  0
    4.4950    2.8000    0.0000 C   0  0  0  0  0  0  0  0  0  0  0  0
    5.7074    0.7000    0.0000 O   0  0  0  0  0  0  0  0  0  0  0  0
    4.3486    4.1923    0.0000 C   0  0  0  0  0  0  0  0  0  0  0  0
    2.9792    4.4834    0.0000 C   0  0  0  0  0  0  0  0  0  0  0  0
    2.2792    3.2710    0.0000 C   0  0  0  0  0  0  0  0  0  0  0  0
    3.2160    2.2306    0.0000 O   0  0  0  0  0  0  0  0  0  0  0  0
    2.4098    5.7624    0.0000 C   0  0  0  0  0  0  0  0  0  0  0  0
    3.1098    6.9748    0.0000 C   0  0  0  0  0  0  0  0  0  0  0  0
    2.1730    8.0152    0.0000 C   0  0  0  0  0  0  0  0  0  0  0  0
    0.8941    7.4458    0.0000 N   0  0  0  0  0  0  0  0  0  0  0  0
    1.0404    6.0534    0.0000 N   0  0  0  0  0  0  0  0  0  0  0  0
    0.0000    5.1167    0.0000 C   0  0  0  0  0  0  0  0  0  0  0  0
    4.5021    7.1211    0.0000 Cl  0  0  0  0  0  0  0  0  0  0  0  0
    0.8869    3.1246    0.0000 Cl  0  0  0  0  0  0  0  0  0  0  0  0
  1  2  2  0  0  0  0
  2  3  1  0  0  0  0
  3  4  2  0  0  0  0
  4  5  1  0  0  0  0
  5  6  2  0  0  0  0
  6  1  1  0  0  0  0
  6  7  1  0  0  0  0
  5  8  1  0  0  0  0
  3  9  1  0  0  0  0
  9 10  1  0  0  0  0
 10 11  1  1  0  0  0
 10 12  1  0  0  0  0
 12 13  1  0  0  0  0
 11 14  1  0  0  0  0
 14 15  1  0  0  0  0
 14 16  2  0  0  0  0
 15 17  2  0  0  0  0
 17 18  1  0  0  0  0
 18 19  2  0  0  0  0
 19 20  1  0  0  0  0
 20 15  1  0  0  0  0
 18 21  1  0  0  0  0
 21 22  2  0  0  0  0
 22 23  1  0  0  0  0
 23 24  2  0  0  0  0
 24 25  1  0  0  0  0
 25 21  1  0  0  0  0
 25 26  1  0  0  0  0
 22 27  1  0  0  0  0
 19 28  1  0  0  0  0
M  END
>  <Mol_ID> (559)
3104

>  <Formula> (559)
C18H16Cl2F2N4O2

>  <MolWeight> (559)
429.2480464

>  <Cat> (559)
S7492

>  <Name> (559)
Uprosertib (GSK2141795)

>  <Synonyms> (559)
GSK795

>  <Target> (559)
Akt

>  <Form> (559)
Free Base

>  <CAS> (559)
1047634-65-0

>  <URL> (559)
http://www.selleckchem.com/products/gsk2141795.html

$$$$
ON123300.cdx
csChFnd80/05071909292D

 32 36  0  0  0  0  0  0  0  0999 V2000
    2.4249   11.9000    0.0000 N   0  0  0  0  0  0  0  0  0  0  0  0
    2.4249   10.5000    0.0000 C   0  0  0  0  0  0  0  0  0  0  0  0
    3.6373    9.8000    0.0000 N   0  0  0  0  0  0  0  0  0  0  0  0
    4.8497   10.5000    0.0000 C   0  0  0  0  0  0  0  0  0  0  0  0
    4.8497   11.9000    0.0000 C   0  0  0  0  0  0  0  0  0  0  0  0
    3.6373   12.6000    0.0000 C   0  0  0  0  0  0  0  0  0  0  0  0
    6.0622    9.8000    0.0000 N   0  0  0  0  0  0  0  0  0  0  0  0
    7.2746   10.5000    0.0000 C   0  0  0  0  0  0  0  0  0  0  0  0
    7.2746   11.9000    0.0000 C   0  0  0  0  0  0  0  0  0  0  0  0
    6.0622   12.6000    0.0000 C   0  0  0  0  0  0  0  0  0  0  0  0
    8.4870   12.6000    0.0000 C   0  0  0  0  0  0  0  0  0  0  0  0
    8.4870    9.8000    0.0000 O   0  0  0  0  0  0  0  0  0  0  0  0
    6.0622    8.4000    0.0000 C   0  0  0  0  0  0  0  0  0  0  0  0
    1.2124    9.8000    0.0000 N   0  0  0  0  0  0  0  0  0  0  0  0
    1.2124    8.4000    0.0000 C   0  0  0  0  0  0  0  0  0  0  0  0
    0.0000    7.7000    0.0000 C   0  0  0  0  0  0  0  0  0  0  0  0
    0.0000    6.3000    0.0000 C   0  0  0  0  0  0  0  0  0  0  0  0
    1.2124    5.6000    0.0000 C   0  0  0  0  0  0  0  0  0  0  0  0
    2.4249    6.3000    0.0000 C   0  0  0  0  0  0  0  0  0  0  0  0
    2.4249    7.7000    0.0000 C   0  0  0  0  0  0  0  0  0  0  0  0
    1.2124    4.2000    0.0000 N   0  0  0  0  0  0  0  0  0  0  0  0
    0.0000    3.5000    0.0000 C   0  0  0  0  0  0  0  0  0  0  0  0
    0.0000    2.1000    0.0000 C   0  0  0  0  0  0  0  0  0  0  0  0
    1.2124    1.4000    0.0000 N   0  0  0  0  0  0  0  0  0  0  0  0
    2.4249    2.1000    0.0000 C   0  0  0  0  0  0  0  0  0  0  0  0
    2.4249    3.5000    0.0000 C   0  0  0  0  0  0  0  0  0  0  0  0
    1.2124    0.0000    0.0000 C   0  0  0  0  0  0  0  0  0  0  0  0
    4.9296    7.5771    0.0000 C   0  0  0  0  0  0  0  0  0  0  0  0
    5.3622    6.2456    0.0000 C   0  0  0  0  0  0  0  0  0  0  0  0
    6.7622    6.2456    0.0000 C   0  0  0  0  0  0  0  0  0  0  0  0
    7.1948    7.5771    0.0000 C   0  0  0  0  0  0  0  0  0  0  0  0
    9.6980   13.3000    0.0000 N   0  0  0  0  0  0  0  0  0  0  0  0
  1  2  2  0  0  0  0
  2  3  1  0  0  0  0
  3  4  2  0  0  0  0
  4  5  1  0  0  0  0
  5  6  2  0  0  0  0
  6  1  1  0  0  0  0
  4  7  1  0  0  0  0
  7  8  1  0  0  0  0
  8  9  1  0  0  0  0
  9 10  2  0  0  0  0
 10  5  1  0  0  0  0
  9 11  1  0  0  0  0
  8 12  2  0  0  0  0
  7 13  1  0  0  0  0
  2 14  1  0  0  0  0
 14 15  1  0  0  0  0
 15 16  2  0  0  0  0
 16 17  1  0  0  0  0
 17 18  2  0  0  0  0
 18 19  1  0  0  0  0
 19 20  2  0  0  0  0
 20 15  1  0  0  0  0
 18 21  1  0  0  0  0
 21 22  1  0  0  0  0
 22 23  1  0  0  0  0
 23 24  1  0  0  0  0
 24 25  1  0  0  0  0
 25 26  1  0  0  0  0
 26 21  1  0  0  0  0
 24 27  1  0  0  0  0
 13 28  1  0  0  0  0
 28 29  1  0  0  0  0
 29 30  1  0  0  0  0
 30 31  1  0  0  0  0
 31 13  1  0  0  0  0
 11 32  3  0  0  0  0
M  END
>  <Mol_ID> (560)
3107

>  <Formula> (560)
C24H27N7O

>  <MolWeight> (560)
429.51748

>  <Cat> (560)
S8161

>  <Name> (560)
ON123300

>  <Synonyms> (560)
N/A

>  <Target> (560)
CDK

>  <Form> (560)
Free Base

>  <CAS> (560)
1357470-29-1

>  <URL> (560)
http://www.selleckchem.com/products/on123300.html

$$$$
PF-06447475.cdx
csChFnd80/05071909292D

 23 26  0  0  0  0  0  0  0  0999 V2000
    0.0000    2.1000    0.0000 N   0  0  0  0  0  0  0  0  0  0  0  0
    0.0000    0.7000    0.0000 C   0  0  0  0  0  0  0  0  0  0  0  0
    1.2124    0.0000    0.0000 N   0  0  0  0  0  0  0  0  0  0  0  0
    2.4249    0.7000    0.0000 C   0  0  0  0  0  0  0  0  0  0  0  0
    2.4249    2.1000    0.0000 C   0  0  0  0  0  0  0  0  0  0  0  0
    1.2124    2.8000    0.0000 C   0  0  0  0  0  0  0  0  0  0  0  0
    1.2124    4.2000    0.0000 N   0  0  0  0  0  0  0  0  0  0  0  0
    3.7564    0.2674    0.0000 N   0  0  0  0  0  0  0  0  0  0  0  0
    4.5793    1.4000    0.0000 C   0  0  0  0  0  0  0  0  0  0  0  0
    3.7564    2.5326    0.0000 C   0  0  0  0  0  0  0  0  0  0  0  0
    2.4249    4.9000    0.0000 C   0  0  0  0  0  0  0  0  0  0  0  0
    2.4249    6.3000    0.0000 C   0  0  0  0  0  0  0  0  0  0  0  0
    1.2124    7.0000    0.0000 O   0  0  0  0  0  0  0  0  0  0  0  0
    0.0000    6.3000    0.0000 C   0  0  0  0  0  0  0  0  0  0  0  0
    0.0000    4.9000    0.0000 C   0  0  0  0  0  0  0  0  0  0  0  0
    4.1890    3.8641    0.0000 C   0  0  0  0  0  0  0  0  0  0  0  0
    5.5584    4.1552    0.0000 C   0  0  0  0  0  0  0  0  0  0  0  0
    5.9910    5.4867    0.0000 C   0  0  0  0  0  0  0  0  0  0  0  0
    5.0542    6.5271    0.0000 C   0  0  0  0  0  0  0  0  0  0  0  0
    3.6848    6.2360    0.0000 C   0  0  0  0  0  0  0  0  0  0  0  0
    3.2522    4.9045    0.0000 C   0  0  0  0  0  0  0  0  0  0  0  0
    7.3604    5.7777    0.0000 C   0  0  0  0  0  0  0  0  0  0  0  0
    8.7277    6.0671    0.0000 N   0  0  0  0  0  0  0  0  0  0  0  0
  1  2  2  0  0  0  0
  2  3  1  0  0  0  0
  3  4  2  0  0  0  0
  4  5  1  0  0  0  0
  5  6  2  0  0  0  0
  6  1  1  0  0  0  0
  6  7  1  0  0  0  0
  4  8  1  0  0  0  0
  8  9  1  0  0  0  0
  9 10  2  0  0  0  0
 10  5  1  0  0  0  0
  7 11  1  0  0  0  0
 11 12  1  0  0  0  0
 12 13  1  0  0  0  0
 13 14  1  0  0  0  0
 14 15  1  0  0  0  0
 15  7  1  0  0  0  0
 10 16  1  0  0  0  0
 16 17  2  0  0  0  0
 17 18  1  0  0  0  0
 18 19  2  0  0  0  0
 19 20  1  0  0  0  0
 20 21  2  0  0  0  0
 21 16  1  0  0  0  0
 18 22  1  0  0  0  0
 22 23  3  0  0  0  0
M  END
>  <Mol_ID> (561)
3108

>  <Formula> (561)
C17H15N5O

>  <MolWeight> (561)
305.3339

>  <Cat> (561)
S8202

>  <Name> (561)
PF-06447475

>  <Synonyms> (561)
N/A

>  <Target> (561)
LRRK2

>  <Form> (561)
Free Base

>  <CAS> (561)
1527473-33-1

>  <URL> (561)
http://www.selleckchem.com/products/pf-06447475.html

$$$$
VPS34-IN1.cdx
csChFnd80/05071909292D

 30 33  0  0  0  0  0  0  0  0999 V2000
    0.0000    6.3000    0.0000 C   0  0  0  0  0  0  0  0  0  0  0  0
    0.0000    4.9000    0.0000 N   0  0  0  0  0  0  0  0  0  0  0  0
    1.2124    4.2000    0.0000 C   0  0  0  0  0  0  0  0  0  0  0  0
    2.4249    4.9000    0.0000 N   0  0  0  0  0  0  0  0  0  0  0  0
    2.4249    6.3000    0.0000 C   0  0  0  0  0  0  0  0  0  0  0  0
    1.2124    7.0000    0.0000 C   0  0  0  0  0  0  0  0  0  0  0  0
    3.6373    7.0000    0.0000 C   0  0  0  0  0  0  0  0  0  0  0  0
    1.2124    2.8000    0.0000 N   0  0  0  0  0  0  0  0  0  0  0  0
    2.4249    2.1000    0.0000 C   0  0  0  0  0  0  0  0  0  0  0  0
    2.4249    0.7000    0.0000 C   0  0  0  0  0  0  0  0  0  0  0  0
    3.6373    0.0000    0.0000 C   0  0  0  0  0  0  0  0  0  0  0  0
    4.8497    0.7000    0.0000 N   0  0  0  0  0  0  0  0  0  0  0  0
    4.8497    2.1000    0.0000 C   0  0  0  0  0  0  0  0  0  0  0  0
    3.6373    2.8000    0.0000 C   0  0  0  0  0  0  0  0  0  0  0  0
    4.8497    6.3000    0.0000 C   0  0  0  0  0  0  0  0  0  0  0  0
    6.0622    7.0000    0.0000 N   0  0  0  0  0  0  0  0  0  0  0  0
    6.0622    8.4000    0.0000 C   0  0  0  0  0  0  0  0  0  0  0  0
    4.8497    9.1000    0.0000 N   0  0  0  0  0  0  0  0  0  0  0  0
    3.6373    8.4000    0.0000 C   0  0  0  0  0  0  0  0  0  0  0  0
    2.4249    9.1000    0.0000 C   0  0  0  0  0  0  0  0  0  0  0  0
    2.4249   10.5000    0.0000 C   0  0  0  0  0  0  0  0  0  0  0  0
    7.2746    9.1000    0.0000 N   0  0  0  0  0  0  0  0  0  0  0  0
    8.4870    8.4000    0.0000 C   0  0  0  0  0  0  0  0  0  0  0  0
    9.6995    9.1000    0.0000 C   0  0  0  0  0  0  0  0  0  0  0  0
   10.9119    8.4000    0.0000 O   0  0  0  0  0  0  0  0  0  0  0  0
    6.0622    2.8000    0.0000 Cl  0  0  0  0  0  0  0  0  0  0  0  0
    3.1249   11.7124    0.0000 C   0  0  0  0  0  0  0  0  0  0  0  0
    1.7249   11.7124    0.0000 C   0  0  0  0  0  0  0  0  0  0  0  0
    8.9995   10.3124    0.0000 C   0  0  0  0  0  0  0  0  0  0  0  0
   10.3995   10.3124    0.0000 C   0  0  0  0  0  0  0  0  0  0  0  0
  1  2  2  0  0  0  0
  2  3  1  0  0  0  0
  3  4  2  0  0  0  0
  4  5  1  0  0  0  0
  5  6  2  0  0  0  0
  6  1  1  0  0  0  0
  5  7  1  0  0  0  0
  3  8  1  0  0  0  0
  8  9  1  0  0  0  0
  9 10  2  0  0  0  0
 10 11  1  0  0  0  0
 11 12  2  0  0  0  0
 12 13  1  0  0  0  0
 13 14  2  0  0  0  0
 14  9  1  0  0  0  0
  7 15  2  0  0  0  0
 15 16  1  0  0  0  0
 16 17  2  0  0  0  0
 17 18  1  0  0  0  0
 18 19  2  0  0  0  0
 19  7  1  0  0  0  0
 19 20  1  0  0  0  0
 20 21  1  0  0  0  0
 17 22  1  0  0  0  0
 22 23  1  0  0  0  0
 23 24  1  0  0  0  0
 24 25  1  0  0  0  0
 13 26  1  0  0  0  0
 21 27  1  0  0  0  0
 27 28  1  0  0  0  0
 28 21  1  0  0  0  0
 24 29  1  0  0  0  0
 24 30  1  0  0  0  0
M  END
>  <Mol_ID> (562)
3110

>  <Formula> (562)
C21H24ClN7O

>  <MolWeight> (562)
425.91456

>  <Cat> (562)
S7980

>  <Name> (562)
VPS34-IN1

>  <Synonyms> (562)
Vps34-IN-1

>  <Target> (562)
PI3K

>  <Form> (562)
Free Base

>  <CAS> (562)
1383716-33-3

>  <URL> (562)
http://www.selleckchem.com/products/vps34-in1.html

$$$$
Kenpaullone.cdx
csChFnd80/05071909292D

 20 23  0  0  0  0  0  0  0  0999 V2000
    8.6482    2.6365    0.0000 C   0  0  0  0  0  0  0  0  0  0  0  0
    7.4357    3.3365    0.0000 C   0  0  0  0  0  0  0  0  0  0  0  0
    6.2233    2.6365    0.0000 C   0  0  0  0  0  0  0  0  0  0  0  0
    6.2233    1.2365    0.0000 C   0  0  0  0  0  0  0  0  0  0  0  0
    7.4357    0.5365    0.0000 C   0  0  0  0  0  0  0  0  0  0  0  0
    8.6482    1.2365    0.0000 C   0  0  0  0  0  0  0  0  0  0  0  0
    4.8710    2.9989    0.0000 C   0  0  0  0  0  0  0  0  0  0  0  0
    4.1085    1.8247    0.0000 C   0  0  0  0  0  0  0  0  0  0  0  0
    4.9896    0.7367    0.0000 N   0  0  0  0  0  0  0  0  0  0  0  0
    4.4284    4.3271    0.0000 C   0  0  0  0  0  0  0  0  0  0  0  0
    3.1141    4.8092    0.0000 C   0  0  0  0  0  0  0  0  0  0  0  0
    1.9176    4.0821    0.0000 N   0  0  0  0  0  0  0  0  0  0  0  0
    1.7401    2.6934    0.0000 C   0  0  0  0  0  0  0  0  0  0  0  0
    2.7151    1.6888    0.0000 C   0  0  0  0  0  0  0  0  0  0  0  0
    0.3825    2.3514    0.0000 C   0  0  0  0  0  0  0  0  0  0  0  0
    0.0000    1.0046    0.0000 C   0  0  0  0  0  0  0  0  0  0  0  0
    0.9750    0.0000    0.0000 C   0  0  0  0  0  0  0  0  0  0  0  0
    2.3326    0.3421    0.0000 C   0  0  0  0  0  0  0  0  0  0  0  0
    2.9781    6.2026    0.0000 O   0  0  0  0  0  0  0  0  0  0  0  0
    9.8606    3.3365    0.0000 Br  0  0  0  0  0  0  0  0  0  0  0  0
  1  2  2  0  0  0  0
  2  3  1  0  0  0  0
  3  4  2  0  0  0  0
  4  5  1  0  0  0  0
  5  6  2  0  0  0  0
  6  1  1  0  0  0  0
  3  7  1  0  0  0  0
  7  8  2  0  0  0  0
  8  9  1  0  0  0  0
  9  4  1  0  0  0  0
  7 10  1  0  0  0  0
 10 11  1  0  0  0  0
 11 12  1  0  0  0  0
 12 13  1  0  0  0  0
 13 14  2  0  0  0  0
 14  8  1  0  0  0  0
 13 15  1  0  0  0  0
 15 16  2  0  0  0  0
 16 17  1  0  0  0  0
 17 18  2  0  0  0  0
 18 14  1  0  0  0  0
 11 19  2  0  0  0  0
  1 20  1  0  0  0  0
M  END
>  <Mol_ID> (563)
3112

>  <Formula> (563)
C16H11BrN2O

>  <MolWeight> (563)
327.17534

>  <Cat> (563)
S7917

>  <Name> (563)
Kenpaullone

>  <Synonyms> (563)
N/A

>  <Target> (563)
CDK

>  <Form> (563)
Free Base

>  <CAS> (563)
142273-20-9

>  <URL> (563)
http://www.selleckchem.com/products/kenpaullone.html

$$$$
Oclacitinib maleate.cdx
csChFnd80/05071909292D

 31 32  0  0  0  0  0  0  0  0999 V2000
    0.0000    2.5273    0.0000 N   0  0  0  0  0  0  0  0  0  0  0  0
    0.0000    1.1273    0.0000 C   0  0  0  0  0  0  0  0  0  0  0  0
    1.2124    0.4273    0.0000 N   0  0  0  0  0  0  0  0  0  0  0  0
    2.4249    1.1273    0.0000 C   0  0  0  0  0  0  0  0  0  0  0  0
    2.4249    2.5273    0.0000 C   0  0  0  0  0  0  0  0  0  0  0  0
    1.2124    3.2273    0.0000 C   0  0  0  0  0  0  0  0  0  0  0  0
    3.7563    0.6947    0.0000 N   0  0  0  0  0  0  0  0  0  0  0  0
    4.5792    1.8273    0.0000 C   0  0  0  0  0  0  0  0  0  0  0  0
    3.7563    2.9599    0.0000 C   0  0  0  0  0  0  0  0  0  0  0  0
    1.2124    4.6273    0.0000 N   0  0  0  0  0  0  0  0  0  0  0  0
    0.0000    5.3273    0.0000 C   0  0  0  0  0  0  0  0  0  0  0  0
    2.4249    5.3273    0.0000 C   0  0  2  0  0  0  0  0  0  0  0  0
    3.6373    4.6273    0.0000 C   0  0  0  0  0  0  0  0  0  0  0  0
    4.8497    5.3273    0.0000 C   0  0  0  0  0  0  0  0  0  0  0  0
    4.8497    6.7273    0.0000 C   0  0  2  0  0  0  0  0  0  0  0  0
    3.6373    7.4273    0.0000 C   0  0  0  0  0  0  0  0  0  0  0  0
    2.4249    6.7273    0.0000 C   0  0  0  0  0  0  0  0  0  0  0  0
    6.0622    7.4273    0.0000 C   0  0  0  0  0  0  0  0  0  0  0  0
    7.2746    6.7273    0.0000 S   0  0  0  0  0  0  0  0  0  0  0  0
    8.4870    7.4273    0.0000 N   0  0  0  0  0  0  0  0  0  0  0  0
    9.6995    6.7273    0.0000 C   0  0  0  0  0  0  0  0  0  0  0  0
    7.2746    5.3273    0.0000 O   0  0  0  0  0  0  0  0  0  0  0  0
    7.2746    8.1273    0.0000 O   0  0  0  0  0  0  0  0  0  0  0  0
    9.9154    3.4927    0.0000 C   0  0  0  0  0  0  0  0  0  0  0  0
    9.9154    2.0927    0.0000 C   0  0  0  0  0  0  0  0  0  0  0  0
   11.1236    4.1903    0.0000 C   0  0  0  0  0  0  0  0  0  0  0  0
   11.1236    1.3951    0.0000 C   0  0  0  0  0  0  0  0  0  0  0  0
   12.3318    3.4927    0.0000 O   0  0  0  0  0  0  0  0  0  0  0  0
   11.1236    5.5854    0.0000 O   0  0  0  0  0  0  0  0  0  0  0  0
   11.1236    0.0000    0.0000 O   0  0  0  0  0  0  0  0  0  0  0  0
   12.3318    2.0927    0.0000 O   0  0  0  0  0  0  0  0  0  0  0  0
  1  2  2  0  0  0  0
  2  3  1  0  0  0  0
  3  4  2  0  0  0  0
  4  5  1  0  0  0  0
  5  6  2  0  0  0  0
  6  1  1  0  0  0  0
  4  7  1  0  0  0  0
  7  8  1  0  0  0  0
  8  9  2  0  0  0  0
  9  5  1  0  0  0  0
  6 10  1  0  0  0  0
 10 11  1  0  0  0  0
 12 10  1  1  0  0  0
 12 13  1  0  0  0  0
 13 14  1  0  0  0  0
 14 15  1  0  0  0  0
 15 16  1  0  0  0  0
 16 17  1  0  0  0  0
 17 12  1  0  0  0  0
 15 18  1  6  0  0  0
 18 19  1  0  0  0  0
 19 20  1  0  0  0  0
 20 21  1  0  0  0  0
 19 22  2  0  0  0  0
 19 23  2  0  0  0  0
 24 25  2  0  0  0  0
 24 26  1  0  0  0  0
 25 27  1  0  0  0  0
 26 28  1  0  0  0  0
 26 29  2  0  0  0  0
 27 30  2  0  0  0  0
 27 31  1  0  0  0  0
M  END
>  <Mol_ID> (564)
3114

>  <Formula> (564)
C19H27N5O6S

>  <MolWeight> (564)
453.51258

>  <Cat> (564)
S8195

>  <Name> (564)
Oclacitinib maleate

>  <Synonyms> (564)
PF-03394197

>  <Target> (564)
JAK

>  <Form> (564)
Free Base

>  <CAS> (564)
1640292-55-2

>  <URL> (564)
http://www.selleckchem.com/products/oclacitinib-maleate.html

$$$$
MLN2480.cdx
csChFnd80/05071909292D

 32 34  0  0  0  0  0  0  0  0999 V2000
    1.2124    8.7435    0.0000 C   0  0  0  0  0  0  0  0  0  0  0  0
    1.2124    7.3435    0.0000 N   0  0  0  0  0  0  0  0  0  0  0  0
    2.4249    6.6435    0.0000 C   0  0  0  0  0  0  0  0  0  0  0  0
    3.6373    7.3435    0.0000 C   0  0  0  0  0  0  0  0  0  0  0  0
    3.6373    8.7435    0.0000 C   0  0  0  0  0  0  0  0  0  0  0  0
    2.4249    9.4435    0.0000 N   0  0  0  0  0  0  0  0  0  0  0  0
    4.8497    9.4435    0.0000 N   0  0  0  0  0  0  0  0  0  0  0  0
    4.8497    6.6435    0.0000 Cl  0  0  0  0  0  0  0  0  0  0  0  0
    2.4249    5.2435    0.0000 C   0  0  0  0  0  0  0  0  0  0  0  0
    3.6373    4.5435    0.0000 O   0  0  0  0  0  0  0  0  0  0  0  0
    1.2124    4.5435    0.0000 N   0  0  0  0  0  0  0  0  0  0  0  0
    1.2124    3.1435    0.0000 C   0  0  2  0  0  0  0  0  0  0  0  0
    0.0000    2.4435    0.0000 C   0  0  0  0  0  0  0  0  0  0  0  0
    2.4249    2.4435    0.0000 C   0  0  0  0  0  0  0  0  0  0  0  0
    2.5712    1.0512    0.0000 N   0  0  0  0  0  0  0  0  0  0  0  0
    3.9406    0.7601    0.0000 C   0  0  0  0  0  0  0  0  0  0  0  0
    4.6406    1.9726    0.0000 C   0  0  0  0  0  0  0  0  0  0  0  0
    3.7038    3.0130    0.0000 S   0  0  0  0  0  0  0  0  0  0  0  0
    6.0329    2.1189    0.0000 C   0  0  0  0  0  0  0  0  0  0  0  0
    6.8558    0.9863    0.0000 N   0  0  0  0  0  0  0  0  0  0  0  0
    6.6024    3.3979    0.0000 O   0  0  0  0  0  0  0  0  0  0  0  0
    8.2482    1.1326    0.0000 C   0  0  0  0  0  0  0  0  0  0  0  0
    9.0711    0.0000    0.0000 N   0  0  0  0  0  0  0  0  0  0  0  0
   10.4634    0.1463    0.0000 C   0  0  0  0  0  0  0  0  0  0  0  0
   11.0328    1.4253    0.0000 C   0  0  0  0  0  0  0  0  0  0  0  0
   10.2099    2.5579    0.0000 C   0  0  0  0  0  0  0  0  0  0  0  0
    8.8176    2.4116    0.0000 C   0  0  0  0  0  0  0  0  0  0  0  0
   10.7794    3.8369    0.0000 C   0  0  0  0  0  0  0  0  0  0  0  0
   12.4252    1.5716    0.0000 Cl  0  0  0  0  0  0  0  0  0  0  0  0
   12.1717    3.9832    0.0000 F   0  0  0  0  0  0  0  0  0  0  0  0
    9.9565    4.9695    0.0000 F   0  0  0  0  0  0  0  0  0  0  0  0
   11.3488    5.1159    0.0000 F   0  0  0  0  0  0  0  0  0  0  0  0
  1  2  2  0  0  0  0
  2  3  1  0  0  0  0
  3  4  2  0  0  0  0
  4  5  1  0  0  0  0
  5  6  2  0  0  0  0
  6  1  1  0  0  0  0
  5  7  1  0  0  0  0
  4  8  1  0  0  0  0
  3  9  1  0  0  0  0
  9 10  2  0  0  0  0
  9 11  1  0  0  0  0
 11 12  1  0  0  0  0
 12 13  1  1  0  0  0
 12 14  1  0  0  0  0
 14 15  2  0  0  0  0
 15 16  1  0  0  0  0
 16 17  2  0  0  0  0
 17 18  1  0  0  0  0
 18 14  1  0  0  0  0
 17 19  1  0  0  0  0
 19 20  1  0  0  0  0
 19 21  2  0  0  0  0
 20 22  1  0  0  0  0
 22 23  2  0  0  0  0
 23 24  1  0  0  0  0
 24 25  2  0  0  0  0
 25 26  1  0  0  0  0
 26 27  2  0  0  0  0
 27 22  1  0  0  0  0
 26 28  1  0  0  0  0
 25 29  1  0  0  0  0
 28 30  1  0  0  0  0
 28 31  1  0  0  0  0
 28 32  1  0  0  0  0
M  END
>  <Mol_ID> (565)
3117

>  <Formula> (565)
C17H12Cl2F3N7O2S

>  <MolWeight> (565)
506.2890896

>  <Cat> (565)
S7121

>  <Name> (565)
MLN2480

>  <Synonyms> (565)
BIIB-024

>  <Target> (565)
Raf

>  <Form> (565)
Free Base

>  <CAS> (565)
1096708-71-2

>  <URL> (565)
http://www.selleckchem.com/products/mln2480.html

$$$$
Acalabrutinib.cdx
csChFnd80/05071909292D

 35 39  0  0  0  0  0  0  0  0999 V2000
    2.2264    8.9414    0.0000 C   0  0  0  0  0  0  0  0  0  0  0  0
    2.2264    7.5414    0.0000 C   0  0  0  0  0  0  0  0  0  0  0  0
    3.4388    6.8414    0.0000 C   0  0  0  0  0  0  0  0  0  0  0  0
    4.6512    7.5414    0.0000 C   0  0  0  0  0  0  0  0  0  0  0  0
    4.6512    8.9414    0.0000 C   0  0  0  0  0  0  0  0  0  0  0  0
    3.4388    9.6414    0.0000 C   0  0  0  0  0  0  0  0  0  0  0  0
    3.4388   11.0414    0.0000 C   0  0  0  0  0  0  0  0  0  0  0  0
    2.2264   11.7414    0.0000 O   0  0  0  0  0  0  0  0  0  0  0  0
    4.6512   11.7414    0.0000 N   0  0  0  0  0  0  0  0  0  0  0  0
    4.6512   13.1414    0.0000 C   0  0  0  0  0  0  0  0  0  0  0  0
    5.8637   13.8414    0.0000 N   0  0  0  0  0  0  0  0  0  0  0  0
    5.8637   15.2414    0.0000 C   0  0  0  0  0  0  0  0  0  0  0  0
    4.6512   15.9414    0.0000 C   0  0  0  0  0  0  0  0  0  0  0  0
    3.4388   15.2414    0.0000 C   0  0  0  0  0  0  0  0  0  0  0  0
    3.4388   13.8414    0.0000 C   0  0  0  0  0  0  0  0  0  0  0  0
    3.4388    5.4414    0.0000 C   0  0  0  0  0  0  0  0  0  0  0  0
    2.3062    4.6185    0.0000 C   0  0  0  0  0  0  0  0  0  0  0  0
    2.7388    3.2870    0.0000 N   0  0  0  0  0  0  0  0  0  0  0  0
    4.1388    3.2870    0.0000 C   0  0  0  0  0  0  0  0  0  0  0  0
    4.5714    4.6185    0.0000 N   0  0  0  0  0  0  0  0  0  0  0  0
    0.9368    4.9096    0.0000 C   0  0  0  0  0  0  0  0  0  0  0  0
    0.0000    3.8692    0.0000 N   0  0  0  0  0  0  0  0  0  0  0  0
    0.4326    2.5377    0.0000 C   0  0  0  0  0  0  0  0  0  0  0  0
    1.8020    2.2466    0.0000 C   0  0  0  0  0  0  0  0  0  0  0  0
    0.5042    6.2410    0.0000 N   0  0  0  0  0  0  0  0  0  0  0  0
    4.9617    2.1544    0.0000 C   0  0  2  0  0  0  0  0  0  0  0  0
    4.5291    0.8229    0.0000 C   0  0  0  0  0  0  0  0  0  0  0  0
    5.6617    0.0000    0.0000 C   0  0  0  0  0  0  0  0  0  0  0  0
    6.7943    0.8229    0.0000 C   0  0  0  0  0  0  0  0  0  0  0  0
    6.3617    2.1544    0.0000 N   0  0  0  0  0  0  0  0  0  0  0  0
    7.1846    3.2870    0.0000 C   0  0  0  0  0  0  0  0  0  0  0  0
    6.6152    4.5660    0.0000 O   0  0  0  0  0  0  0  0  0  0  0  0
    8.5769    3.1407    0.0000 C   0  0  0  0  0  0  0  0  0  0  0  0
    9.9676    2.9960    0.0000 C   0  0  0  0  0  0  0  0  0  0  0  0
   11.3583    2.8513    0.0000 C   0  0  0  0  0  0  0  0  0  0  0  0
  1  2  2  0  0  0  0
  2  3  1  0  0  0  0
  3  4  2  0  0  0  0
  4  5  1  0  0  0  0
  5  6  2  0  0  0  0
  6  1  1  0  0  0  0
  6  7  1  0  0  0  0
  7  8  2  0  0  0  0
  7  9  1  0  0  0  0
  9 10  1  0  0  0  0
 10 11  2  0  0  0  0
 11 12  1  0  0  0  0
 12 13  2  0  0  0  0
 13 14  1  0  0  0  0
 14 15  2  0  0  0  0
 15 10  1  0  0  0  0
  3 16  1  0  0  0  0
 16 17  2  0  0  0  0
 18 19  1  0  0  0  0
 19 20  2  0  0  0  0
 20 16  1  0  0  0  0
 17 21  1  0  0  0  0
 21 22  2  0  0  0  0
 22 23  1  0  0  0  0
 23 24  2  0  0  0  0
 24 18  1  0  0  0  0
 21 25  1  0  0  0  0
 17 18  1  0  0  0  0
 26 19  1  1  0  0  0
 26 27  1  0  0  0  0
 27 28  1  0  0  0  0
 28 29  1  0  0  0  0
 29 30  1  0  0  0  0
 30 26  1  0  0  0  0
 30 31  1  0  0  0  0
 31 32  2  0  0  0  0
 31 33  1  0  0  0  0
 33 34  3  0  0  0  0
 34 35  1  0  0  0  0
M  END
>  <Mol_ID> (566)
3119

>  <Formula> (566)
C26H23N7O2

>  <MolWeight> (566)
465.50652

>  <Cat> (566)
S8116

>  <Name> (566)
Acalabrutinib (ACP-196)

>  <Synonyms> (566)
N/A

>  <Target> (566)
BTK

>  <Form> (566)
Free Base

>  <CAS> (566)
1420477-60-6

>  <URL> (566)
http://www.selleckchem.com/products/acalabrutinib.html

$$$$
PIK-III.cdx
csChFnd80/05071909292D

 24 27  0  0  0  0  0  0  0  0999 V2000
    0.0000    6.3000    0.0000 C   0  0  0  0  0  0  0  0  0  0  0  0
    0.0000    4.9000    0.0000 N   0  0  0  0  0  0  0  0  0  0  0  0
    1.2124    4.2000    0.0000 C   0  0  0  0  0  0  0  0  0  0  0  0
    2.4249    4.9000    0.0000 N   0  0  0  0  0  0  0  0  0  0  0  0
    2.4249    6.3000    0.0000 C   0  0  0  0  0  0  0  0  0  0  0  0
    1.2124    7.0000    0.0000 C   0  0  0  0  0  0  0  0  0  0  0  0
    3.6373    7.0000    0.0000 C   0  0  0  0  0  0  0  0  0  0  0  0
    1.2124    2.8000    0.0000 N   0  0  0  0  0  0  0  0  0  0  0  0
    2.4249    2.1000    0.0000 C   0  0  0  0  0  0  0  0  0  0  0  0
    2.4249    0.7000    0.0000 C   0  0  0  0  0  0  0  0  0  0  0  0
    3.6373    0.0000    0.0000 C   0  0  0  0  0  0  0  0  0  0  0  0
    4.8497    0.7000    0.0000 N   0  0  0  0  0  0  0  0  0  0  0  0
    4.8497    2.1000    0.0000 C   0  0  0  0  0  0  0  0  0  0  0  0
    3.6373    2.8000    0.0000 C   0  0  0  0  0  0  0  0  0  0  0  0
    4.8497    6.3000    0.0000 C   0  0  0  0  0  0  0  0  0  0  0  0
    6.0622    7.0000    0.0000 N   0  0  0  0  0  0  0  0  0  0  0  0
    6.0622    8.4000    0.0000 C   0  0  0  0  0  0  0  0  0  0  0  0
    4.8497    9.1000    0.0000 N   0  0  0  0  0  0  0  0  0  0  0  0
    3.6373    8.4000    0.0000 C   0  0  0  0  0  0  0  0  0  0  0  0
    2.4249    9.1000    0.0000 C   0  0  0  0  0  0  0  0  0  0  0  0
    2.4249   10.5000    0.0000 C   0  0  0  0  0  0  0  0  0  0  0  0
    7.2746    9.1000    0.0000 N   0  0  0  0  0  0  0  0  0  0  0  0
    3.1249   11.7124    0.0000 C   0  0  0  0  0  0  0  0  0  0  0  0
    1.7249   11.7124    0.0000 C   0  0  0  0  0  0  0  0  0  0  0  0
  1  2  2  0  0  0  0
  2  3  1  0  0  0  0
  3  4  2  0  0  0  0
  4  5  1  0  0  0  0
  5  6  2  0  0  0  0
  6  1  1  0  0  0  0
  5  7  1  0  0  0  0
  3  8  1  0  0  0  0
  8  9  1  0  0  0  0
  9 10  2  0  0  0  0
 10 11  1  0  0  0  0
 11 12  2  0  0  0  0
 12 13  1  0  0  0  0
 13 14  2  0  0  0  0
 14  9  1  0  0  0  0
  7 15  2  0  0  0  0
 15 16  1  0  0  0  0
 16 17  2  0  0  0  0
 17 18  1  0  0  0  0
 18 19  2  0  0  0  0
 19  7  1  0  0  0  0
 19 20  1  0  0  0  0
 20 21  1  0  0  0  0
 17 22  1  0  0  0  0
 21 23  1  0  0  0  0
 23 24  1  0  0  0  0
 24 21  1  0  0  0  0
M  END
>  <Mol_ID> (567)
3128

>  <Formula> (567)
C17H17N7

>  <MolWeight> (567)
319.36378

>  <Cat> (567)
S7683

>  <Name> (567)
PIK-III

>  <Synonyms> (567)
VPS34-IN2

>  <Target> (567)
Autophagy

>  <Form> (567)
Free Base

>  <CAS> (567)
1383716-40-2

>  <URL> (567)
http://www.selleckchem.com/products/pik-iii.html

$$$$
PD0166285.cdx
csChFnd80/05071909292D

 35 38  0  0  0  0  0  0  0  0999 V2000
    0.0000    4.2000    0.0000 C   0  0  0  0  0  0  0  0  0  0  0  0
    0.0000    2.8000    0.0000 C   0  0  0  0  0  0  0  0  0  0  0  0
    1.2124    2.1000    0.0000 C   0  0  0  0  0  0  0  0  0  0  0  0
    2.4249    2.8000    0.0000 C   0  0  0  0  0  0  0  0  0  0  0  0
    2.4249    4.2000    0.0000 C   0  0  0  0  0  0  0  0  0  0  0  0
    1.2124    4.9000    0.0000 C   0  0  0  0  0  0  0  0  0  0  0  0
    1.2124    6.3000    0.0000 Cl  0  0  0  0  0  0  0  0  0  0  0  0
    3.6373    2.1000    0.0000 Cl  0  0  0  0  0  0  0  0  0  0  0  0
    3.6373    4.9000    0.0000 C   0  0  0  0  0  0  0  0  0  0  0  0
    4.8497    4.2000    0.0000 C   0  0  0  0  0  0  0  0  0  0  0  0
    6.0622    4.9000    0.0000 C   0  0  0  0  0  0  0  0  0  0  0  0
    6.0622    6.3000    0.0000 C   0  0  0  0  0  0  0  0  0  0  0  0
    4.8497    7.0000    0.0000 N   0  0  0  0  0  0  0  0  0  0  0  0
    3.6373    6.3000    0.0000 C   0  0  0  0  0  0  0  0  0  0  0  0
    2.4249    7.0000    0.0000 O   0  0  0  0  0  0  0  0  0  0  0  0
    4.8497    8.4000    0.0000 C   0  0  0  0  0  0  0  0  0  0  0  0
    7.2746    4.2000    0.0000 C   0  0  0  0  0  0  0  0  0  0  0  0
    8.4870    4.9000    0.0000 N   0  0  0  0  0  0  0  0  0  0  0  0
    8.4870    6.3000    0.0000 C   0  0  0  0  0  0  0  0  0  0  0  0
    7.2746    7.0000    0.0000 N   0  0  0  0  0  0  0  0  0  0  0  0
    9.6995    7.0000    0.0000 N   0  0  0  0  0  0  0  0  0  0  0  0
   10.9119    6.3000    0.0000 C   0  0  0  0  0  0  0  0  0  0  0  0
   10.9119    4.9000    0.0000 C   0  0  0  0  0  0  0  0  0  0  0  0
   12.1244    4.2000    0.0000 C   0  0  0  0  0  0  0  0  0  0  0  0
   13.3368    4.9000    0.0000 C   0  0  0  0  0  0  0  0  0  0  0  0
   13.3368    6.3000    0.0000 C   0  0  0  0  0  0  0  0  0  0  0  0
   12.1244    7.0000    0.0000 C   0  0  0  0  0  0  0  0  0  0  0  0
   14.5492    4.2000    0.0000 O   0  0  0  0  0  0  0  0  0  0  0  0
   14.5492    2.8000    0.0000 C   0  0  0  0  0  0  0  0  0  0  0  0
   15.7617    2.1000    0.0000 C   0  0  0  0  0  0  0  0  0  0  0  0
   15.7617    0.7000    0.0000 N   0  0  0  0  0  0  0  0  0  0  0  0
   16.9741    0.0000    0.0000 C   0  0  0  0  0  0  0  0  0  0  0  0
   14.5492    0.0000    0.0000 C   0  0  0  0  0  0  0  0  0  0  0  0
   13.3368    0.7000    0.0000 C   0  0  0  0  0  0  0  0  0  0  0  0
   18.1865    0.7000    0.0000 C   0  0  0  0  0  0  0  0  0  0  0  0
  1  2  2  0  0  0  0
  2  3  1  0  0  0  0
  3  4  2  0  0  0  0
  4  5  1  0  0  0  0
  5  6  2  0  0  0  0
  6  1  1  0  0  0  0
  6  7  1  0  0  0  0
  4  8  1  0  0  0  0
  5  9  1  0  0  0  0
  9 10  2  0  0  0  0
 10 11  1  0  0  0  0
 11 12  2  0  0  0  0
 12 13  1  0  0  0  0
 13 14  1  0  0  0  0
 14  9  1  0  0  0  0
 14 15  2  0  0  0  0
 13 16  1  0  0  0  0
 11 17  1  0  0  0  0
 17 18  2  0  0  0  0
 18 19  1  0  0  0  0
 19 20  2  0  0  0  0
 20 12  1  0  0  0  0
 19 21  1  0  0  0  0
 21 22  1  0  0  0  0
 22 23  2  0  0  0  0
 23 24  1  0  0  0  0
 24 25  2  0  0  0  0
 25 26  1  0  0  0  0
 26 27  2  0  0  0  0
 27 22  1  0  0  0  0
 25 28  1  0  0  0  0
 28 29  1  0  0  0  0
 29 30  1  0  0  0  0
 30 31  1  0  0  0  0
 31 32  1  0  0  0  0
 31 33  1  0  0  0  0
 33 34  1  0  0  0  0
 32 35  1  0  0  0  0
M  END
>  <Mol_ID> (568)
3133

>  <Formula> (568)
C26H27Cl2N5O2

>  <MolWeight> (568)
512.43088

>  <Cat> (568)
S8148

>  <Name> (568)
PD0166285

>  <Synonyms> (568)
N/A

>  <Target> (568)
Wee1

>  <Form> (568)
Free Base

>  <CAS> (568)
185039-89-8

>  <URL> (568)
http://www.selleckchem.com/products/pd0166285.html

$$$$
BMS-582949.cdx
csChFnd80/05071909292D

 30 33  0  0  0  0  0  0  0  0999 V2000
    7.7544    3.1249    0.0000 C   0  0  0  0  0  0  0  0  0  0  0  0
    7.7544    1.7249    0.0000 N   0  0  0  0  0  0  0  0  0  0  0  0
    8.9668    1.0249    0.0000 N   0  0  0  0  0  0  0  0  0  0  0  0
   10.1792    1.7249    0.0000 C   0  0  0  0  0  0  0  0  0  0  0  0
   10.1792    3.1249    0.0000 N   0  0  0  0  0  0  0  0  0  0  0  0
    8.9668    3.8249    0.0000 C   0  0  0  0  0  0  0  0  0  0  0  0
    8.9668    5.2249    0.0000 N   0  0  0  0  0  0  0  0  0  0  0  0
   10.1792    5.9249    0.0000 C   0  0  0  0  0  0  0  0  0  0  0  0
   11.3917    5.2249    0.0000 C   0  0  0  0  0  0  0  0  0  0  0  0
   12.6041    5.9249    0.0000 C   0  0  0  0  0  0  0  0  0  0  0  0
   12.6041    7.3249    0.0000 C   0  0  0  0  0  0  0  0  0  0  0  0
   11.3917    8.0249    0.0000 C   0  0  0  0  0  0  0  0  0  0  0  0
   10.1792    7.3249    0.0000 C   0  0  0  0  0  0  0  0  0  0  0  0
    8.9668    8.0249    0.0000 C   0  0  0  0  0  0  0  0  0  0  0  0
   13.8166    5.2249    0.0000 C   0  0  0  0  0  0  0  0  0  0  0  0
   15.0290    5.9249    0.0000 N   0  0  0  0  0  0  0  0  0  0  0  0
   13.8166    3.8249    0.0000 O   0  0  0  0  0  0  0  0  0  0  0  0
   16.2414    5.2249    0.0000 C   0  0  0  0  0  0  0  0  0  0  0  0
   16.9414    4.0124    0.0000 C   0  0  0  0  0  0  0  0  0  0  0  0
   17.6414    5.2249    0.0000 C   0  0  0  0  0  0  0  0  0  0  0  0
    6.4229    3.5575    0.0000 C   0  0  0  0  0  0  0  0  0  0  0  0
    5.6000    2.4249    0.0000 C   0  0  0  0  0  0  0  0  0  0  0  0
    6.4229    1.2922    0.0000 C   0  0  0  0  0  0  0  0  0  0  0  0
    5.9903    4.8890    0.0000 C   0  0  0  0  0  0  0  0  0  0  0  0
    4.2000    2.4249    0.0000 C   0  0  0  0  0  0  0  0  0  0  0  0
    3.5000    1.2124    0.0000 N   0  0  0  0  0  0  0  0  0  0  0  0
    3.5000    3.6373    0.0000 O   0  0  0  0  0  0  0  0  0  0  0  0
    2.1000    1.2124    0.0000 C   0  0  0  0  0  0  0  0  0  0  0  0
    1.4000    0.0000    0.0000 C   0  0  0  0  0  0  0  0  0  0  0  0
    0.0000    0.0000    0.0000 C   0  0  0  0  0  0  0  0  0  0  0  0
  2  3  1  0  0  0  0
  3  4  2  0  0  0  0
  4  5  1  0  0  0  0
  5  6  2  0  0  0  0
  6  1  1  0  0  0  0
  6  7  1  0  0  0  0
  7  8  1  0  0  0  0
  8  9  2  0  0  0  0
  9 10  1  0  0  0  0
 10 11  2  0  0  0  0
 11 12  1  0  0  0  0
 12 13  2  0  0  0  0
 13  8  1  0  0  0  0
 13 14  1  0  0  0  0
 10 15  1  0  0  0  0
 15 16  1  0  0  0  0
 15 17  2  0  0  0  0
 16 18  1  0  0  0  0
 18 19  1  0  0  0  0
 19 20  1  0  0  0  0
 20 18  1  0  0  0  0
  1 21  2  0  0  0  0
 21 22  1  0  0  0  0
 22 23  2  0  0  0  0
 23  2  1  0  0  0  0
  1  2  1  0  0  0  0
 21 24  1  0  0  0  0
 22 25  1  0  0  0  0
 25 26  1  0  0  0  0
 25 27  2  0  0  0  0
 26 28  1  0  0  0  0
 28 29  1  0  0  0  0
 29 30  1  0  0  0  0
M  END
>  <Mol_ID> (569)
3135

>  <Formula> (569)
C22H26N6O2

>  <MolWeight> (569)
406.48084

>  <Cat> (569)
S8124

>  <Name> (569)
BMS-582949

>  <Synonyms> (569)
PS540446

>  <Target> (569)
p38 MAPK

>  <Form> (569)
Free Base

>  <CAS> (569)
623152-17-0

>  <URL> (569)
http://www.selleckchem.com/products/bms-582949.html

$$$$
SGI-7079.cdx
csChFnd80/05071909292D

 34 38  0  0  0  0  0  0  0  0999 V2000
    2.1148    2.1000    0.0000 C   0  0  0  0  0  0  0  0  0  0  0  0
    2.1148    0.7000    0.0000 C   0  0  0  0  0  0  0  0  0  0  0  0
    3.3272    0.0000    0.0000 N   0  0  0  0  0  0  0  0  0  0  0  0
    4.5397    0.7000    0.0000 C   0  0  0  0  0  0  0  0  0  0  0  0
    4.5397    2.1000    0.0000 N   0  0  0  0  0  0  0  0  0  0  0  0
    3.3272    2.8000    0.0000 C   0  0  0  0  0  0  0  0  0  0  0  0
    0.7625    2.4623    0.0000 C   0  0  0  0  0  0  0  0  0  0  0  0
    0.0000    1.2882    0.0000 C   0  0  0  0  0  0  0  0  0  0  0  0
    0.8810    0.2002    0.0000 N   0  0  0  0  0  0  0  0  0  0  0  0
    3.3272    4.2000    0.0000 C   0  0  0  0  0  0  0  0  0  0  0  0
    0.2608    3.7694    0.0000 C   0  0  0  0  0  0  0  0  0  0  0  0
    4.5397    4.9000    0.0000 C   0  0  0  0  0  0  0  0  0  0  0  0
    4.5397    6.3000    0.0000 C   0  0  0  0  0  0  0  0  0  0  0  0
    3.3272    7.0000    0.0000 C   0  0  0  0  0  0  0  0  0  0  0  0
    2.1148    6.3000    0.0000 C   0  0  0  0  0  0  0  0  0  0  0  0
    2.1148    4.9000    0.0000 C   0  0  0  0  0  0  0  0  0  0  0  0
    5.7521    7.0000    0.0000 C   0  0  0  0  0  0  0  0  0  0  0  0
    6.9645    6.3000    0.0000 C   0  0  0  0  0  0  0  0  0  0  0  0
    8.1770    5.6000    0.0000 N   0  0  0  0  0  0  0  0  0  0  0  0
    5.7521    0.0000    0.0000 N   0  0  0  0  0  0  0  0  0  0  0  0
    6.9645    0.7000    0.0000 C   0  0  0  0  0  0  0  0  0  0  0  0
    8.1770    0.0000    0.0000 C   0  0  0  0  0  0  0  0  0  0  0  0
    9.3894    0.7000    0.0000 C   0  0  0  0  0  0  0  0  0  0  0  0
    9.3894    2.1000    0.0000 C   0  0  0  0  0  0  0  0  0  0  0  0
    8.1770    2.8000    0.0000 C   0  0  0  0  0  0  0  0  0  0  0  0
    6.9645    2.1000    0.0000 C   0  0  0  0  0  0  0  0  0  0  0  0
    8.1770    4.2000    0.0000 F   0  0  0  0  0  0  0  0  0  0  0  0
   10.6018    2.8000    0.0000 N   0  0  0  0  0  0  0  0  0  0  0  0
   11.8143    2.1000    0.0000 C   0  0  0  0  0  0  0  0  0  0  0  0
   13.0267    2.8000    0.0000 C   0  0  0  0  0  0  0  0  0  0  0  0
   13.0267    4.2000    0.0000 N   0  0  0  0  0  0  0  0  0  0  0  0
   11.8143    4.9000    0.0000 C   0  0  0  0  0  0  0  0  0  0  0  0
   10.6018    4.2000    0.0000 C   0  0  0  0  0  0  0  0  0  0  0  0
   14.2391    4.9000    0.0000 C   0  0  0  0  0  0  0  0  0  0  0  0
  1  2  2  0  0  0  0
  2  3  1  0  0  0  0
  3  4  2  0  0  0  0
  4  5  1  0  0  0  0
  5  6  2  0  0  0  0
  6  1  1  0  0  0  0
  1  7  1  0  0  0  0
  7  8  2  0  0  0  0
  8  9  1  0  0  0  0
  9  2  1  0  0  0  0
  6 10  1  0  0  0  0
  7 11  1  0  0  0  0
 10 12  2  0  0  0  0
 12 13  1  0  0  0  0
 13 14  2  0  0  0  0
 14 15  1  0  0  0  0
 15 16  2  0  0  0  0
 16 10  1  0  0  0  0
 13 17  1  0  0  0  0
 17 18  1  0  0  0  0
  4 20  1  0  0  0  0
 20 21  1  0  0  0  0
 21 22  2  0  0  0  0
 22 23  1  0  0  0  0
 23 24  2  0  0  0  0
 24 25  1  0  0  0  0
 25 26  2  0  0  0  0
 26 21  1  0  0  0  0
 25 27  1  0  0  0  0
 24 28  1  0  0  0  0
 28 29  1  0  0  0  0
 29 30  1  0  0  0  0
 30 31  1  0  0  0  0
 31 32  1  0  0  0  0
 32 33  1  0  0  0  0
 33 28  1  0  0  0  0
 31 34  1  0  0  0  0
 18 19  3  0  0  0  0
M  END
>  <Mol_ID> (570)
3137

>  <Formula> (570)
C26H26FN7

>  <MolWeight> (570)
455.5299432

>  <Cat> (570)
S7847

>  <Name> (570)
SGI-7079

>  <Synonyms> (570)
N/A

>  <Target> (570)
VEGFR

>  <Form> (570)
Free Base

>  <CAS> (570)
1239875-86-5

>  <URL> (570)
http://www.selleckchem.com/products/sgi-7079.html

$$$$
Pluripotin (SC1).cdx
csChFnd80/05071909292D

 40 44  0  0  0  0  0  0  0  0999 V2000
    4.6406    3.5000    0.0000 N   0  0  0  0  0  0  0  0  0  0  0  0
    4.6406    2.1000    0.0000 C   0  0  0  0  0  0  0  0  0  0  0  0
    5.8531    1.4000    0.0000 N   0  0  0  0  0  0  0  0  0  0  0  0
    7.0655    2.1000    0.0000 C   0  0  0  0  0  0  0  0  0  0  0  0
    7.0655    3.5000    0.0000 C   0  0  0  0  0  0  0  0  0  0  0  0
    5.8531    4.2000    0.0000 C   0  0  0  0  0  0  0  0  0  0  0  0
    8.2779    1.4000    0.0000 N   0  0  0  0  0  0  0  0  0  0  0  0
    9.4904    2.1000    0.0000 C   0  0  0  0  0  0  0  0  0  0  0  0
    9.4904    3.5000    0.0000 N   0  0  0  0  0  0  0  0  0  0  0  0
    8.2779    4.2000    0.0000 C   0  0  0  0  0  0  0  0  0  0  0  0
    3.4282    1.4000    0.0000 N   0  0  0  0  0  0  0  0  0  0  0  0
    2.2157    2.1000    0.0000 C   0  0  0  0  0  0  0  0  0  0  0  0
    8.2779    0.0000    0.0000 C   0  0  0  0  0  0  0  0  0  0  0  0
   10.7028    1.4000    0.0000 O   0  0  0  0  0  0  0  0  0  0  0  0
   10.7028    4.2000    0.0000 C   0  0  0  0  0  0  0  0  0  0  0  0
   11.9152    3.5000    0.0000 C   0  0  0  0  0  0  0  0  0  0  0  0
   13.1277    4.2000    0.0000 C   0  0  0  0  0  0  0  0  0  0  0  0
   13.1277    5.6000    0.0000 C   0  0  0  0  0  0  0  0  0  0  0  0
   11.9152    6.3000    0.0000 C   0  0  0  0  0  0  0  0  0  0  0  0
   10.7028    5.6000    0.0000 C   0  0  0  0  0  0  0  0  0  0  0  0
    9.4904    6.3000    0.0000 C   0  0  0  0  0  0  0  0  0  0  0  0
   14.3401    3.5000    0.0000 N   0  0  0  0  0  0  0  0  0  0  0  0
   15.5525    4.2000    0.0000 C   0  0  0  0  0  0  0  0  0  0  0  0
   16.7650    3.5000    0.0000 C   0  0  0  0  0  0  0  0  0  0  0  0
   15.5525    5.6000    0.0000 O   0  0  0  0  0  0  0  0  0  0  0  0
   16.7650    2.1000    0.0000 C   0  0  0  0  0  0  0  0  0  0  0  0
   17.9774    1.4000    0.0000 C   0  0  0  0  0  0  0  0  0  0  0  0
   19.1898    2.1000    0.0000 C   0  0  0  0  0  0  0  0  0  0  0  0
   19.1898    3.5000    0.0000 C   0  0  0  0  0  0  0  0  0  0  0  0
   17.9774    4.2000    0.0000 C   0  0  0  0  0  0  0  0  0  0  0  0
   20.4023    4.2000    0.0000 C   0  0  0  0  0  0  0  0  0  0  0  0
   21.6147    3.5000    0.0000 F   0  0  0  0  0  0  0  0  0  0  0  0
   20.4023    5.6000    0.0000 F   0  0  0  0  0  0  0  0  0  0  0  0
   21.6147    4.9000    0.0000 F   0  0  0  0  0  0  0  0  0  0  0  0
    2.0694    3.4923    0.0000 C   0  0  0  0  0  0  0  0  0  0  0  0
    0.7000    3.7834    0.0000 C   0  0  0  0  0  0  0  0  0  0  0  0
    0.0000    2.5710    0.0000 N   0  0  0  0  0  0  0  0  0  0  0  0
    0.9368    1.5306    0.0000 N   0  0  0  0  0  0  0  0  0  0  0  0
    0.1306    5.0624    0.0000 C   0  0  0  0  0  0  0  0  0  0  0  0
    0.6457    0.1612    0.0000 C   0  0  0  0  0  0  0  0  0  0  0  0
  1  2  2  0  0  0  0
  2  3  1  0  0  0  0
  3  4  2  0  0  0  0
  4  5  1  0  0  0  0
  5  6  2  0  0  0  0
  6  1  1  0  0  0  0
  4  7  1  0  0  0  0
  7  8  1  0  0  0  0
  8  9  1  0  0  0  0
  9 10  1  0  0  0  0
 10  5  1  0  0  0  0
  2 11  1  0  0  0  0
 11 12  1  0  0  0  0
  7 13  1  0  0  0  0
  8 14  2  0  0  0  0
  9 15  1  0  0  0  0
 15 16  2  0  0  0  0
 16 17  1  0  0  0  0
 17 18  2  0  0  0  0
 18 19  1  0  0  0  0
 19 20  2  0  0  0  0
 20 15  1  0  0  0  0
 20 21  1  0  0  0  0
 17 22  1  0  0  0  0
 22 23  1  0  0  0  0
 23 24  1  0  0  0  0
 23 25  2  0  0  0  0
 24 26  2  0  0  0  0
 26 27  1  0  0  0  0
 27 28  2  0  0  0  0
 28 29  1  0  0  0  0
 29 30  2  0  0  0  0
 30 24  1  0  0  0  0
 29 31  1  0  0  0  0
 31 32  1  0  0  0  0
 31 33  1  0  0  0  0
 31 34  1  0  0  0  0
 12 35  2  0  0  0  0
 35 36  1  0  0  0  0
 36 37  2  0  0  0  0
 37 38  1  0  0  0  0
 38 12  1  0  0  0  0
 36 39  1  0  0  0  0
 38 40  1  0  0  0  0
M  END
>  <Mol_ID> (571)
3140

>  <Formula> (571)
C27H25F3N8O2

>  <MolWeight> (571)
550.5350096

>  <Cat> (571)
S7752

>  <Name> (571)
Pluripotin (SC1)

>  <Synonyms> (571)
N/A

>  <Target> (571)
ERK

>  <Form> (571)
Free Base

>  <CAS> (571)
839707-37-8

>  <URL> (571)
http://www.selleckchem.com/products/pluripotin-sc1.html

$$$$
PLX7904.cdx
csChFnd80/05071909292D

 36 40  0  0  0  0  0  0  0  0999 V2000
    2.6124    5.2380    0.0000 C   0  0  0  0  0  0  0  0  0  0  0  0
    2.6124    3.8380    0.0000 N   0  0  0  0  0  0  0  0  0  0  0  0
    3.8249    3.1380    0.0000 C   0  0  0  0  0  0  0  0  0  0  0  0
    5.0373    3.8380    0.0000 C   0  0  0  0  0  0  0  0  0  0  0  0
    5.0373    5.2380    0.0000 C   0  0  0  0  0  0  0  0  0  0  0  0
    3.8249    5.9380    0.0000 N   0  0  0  0  0  0  0  0  0  0  0  0
    1.4000    5.9380    0.0000 C   0  0  0  0  0  0  0  0  0  0  0  0
    6.2497    3.1380    0.0000 C   0  0  0  0  0  0  0  0  0  0  0  0
    6.2497    1.7380    0.0000 C   0  0  0  0  0  0  0  0  0  0  0  0
    7.4622    1.0380    0.0000 N   0  0  0  0  0  0  0  0  0  0  0  0
    8.6746    1.7380    0.0000 C   0  0  0  0  0  0  0  0  0  0  0  0
    8.6746    3.1380    0.0000 C   0  0  0  0  0  0  0  0  0  0  0  0
    7.4622    3.8380    0.0000 C   0  0  0  0  0  0  0  0  0  0  0  0
   10.0061    1.3054    0.0000 N   0  0  0  0  0  0  0  0  0  0  0  0
   10.8290    2.4380    0.0000 C   0  0  0  0  0  0  0  0  0  0  0  0
   10.0061    3.5706    0.0000 C   0  0  0  0  0  0  0  0  0  0  0  0
   10.4387    4.9021    0.0000 C   0  0  0  0  0  0  0  0  0  0  0  0
    9.5019    5.9425    0.0000 O   0  0  0  0  0  0  0  0  0  0  0  0
   11.8081    5.1932    0.0000 C   0  0  0  0  0  0  0  0  0  0  0  0
   12.7449    4.1528    0.0000 C   0  0  0  0  0  0  0  0  0  0  0  0
   14.1143    4.4439    0.0000 C   0  0  0  0  0  0  0  0  0  0  0  0
   14.5469    5.7753    0.0000 C   0  0  0  0  0  0  0  0  0  0  0  0
   13.6102    6.8157    0.0000 C   0  0  0  0  0  0  0  0  0  0  0  0
   12.2407    6.5247    0.0000 C   0  0  0  0  0  0  0  0  0  0  0  0
   12.3123    2.8213    0.0000 F   0  0  0  0  0  0  0  0  0  0  0  0
   11.3040    7.5651    0.0000 F   0  0  0  0  0  0  0  0  0  0  0  0
   15.0511    3.4035    0.0000 N   0  0  0  0  0  0  0  0  0  0  0  0
   16.4205    3.6945    0.0000 S   0  0  0  0  0  0  0  0  0  0  0  0
   16.0582    5.0468    0.0000 O   0  0  0  0  0  0  0  0  0  0  0  0
   17.7728    4.0569    0.0000 O   0  0  0  0  0  0  0  0  0  0  0  0
   16.7828    2.3422    0.0000 N   0  0  0  0  0  0  0  0  0  0  0  0
   15.7929    1.3523    0.0000 C   0  0  0  0  0  0  0  0  0  0  0  0
   18.1351    1.9799    0.0000 C   0  0  0  0  0  0  0  0  0  0  0  0
   16.1552    0.0000    0.0000 C   0  0  0  0  0  0  0  0  0  0  0  0
    0.7000    7.1505    0.0000 C   0  0  0  0  0  0  0  0  0  0  0  0
    0.0000    5.9380    0.0000 C   0  0  0  0  0  0  0  0  0  0  0  0
  1  2  2  0  0  0  0
  2  3  1  0  0  0  0
  3  4  2  0  0  0  0
  4  5  1  0  0  0  0
  5  6  2  0  0  0  0
  6  1  1  0  0  0  0
  1  7  1  0  0  0  0
  4  8  1  0  0  0  0
  8  9  2  0  0  0  0
  9 10  1  0  0  0  0
 10 11  2  0  0  0  0
 11 12  1  0  0  0  0
 12 13  2  0  0  0  0
 13  8  1  0  0  0  0
 11 14  1  0  0  0  0
 14 15  1  0  0  0  0
 15 16  2  0  0  0  0
 16 12  1  0  0  0  0
 16 17  1  0  0  0  0
 17 18  2  0  0  0  0
 17 19  1  0  0  0  0
 19 20  2  0  0  0  0
 20 21  1  0  0  0  0
 21 22  2  0  0  0  0
 22 23  1  0  0  0  0
 23 24  2  0  0  0  0
 24 19  1  0  0  0  0
 20 25  1  0  0  0  0
 24 26  1  0  0  0  0
 21 27  1  0  0  0  0
 27 28  1  0  0  0  0
 28 29  2  0  0  0  0
 28 30  2  0  0  0  0
 28 31  1  0  0  0  0
 31 32  1  0  0  0  0
 31 33  1  0  0  0  0
 32 34  1  0  0  0  0
  7 35  1  0  0  0  0
 35 36  1  0  0  0  0
 36  7  1  0  0  0  0
M  END
>  <Mol_ID> (572)
3145

>  <Formula> (572)
C24H22F2N6O3S

>  <MolWeight> (572)
512.5316864

>  <Cat> (572)
S7964

>  <Name> (572)
PLX7904

>  <Synonyms> (572)
PB04

>  <Target> (572)
Raf

>  <Form> (572)
Free Base

>  <CAS> (572)
1393465-84-3

>  <URL> (572)
http://www.selleckchem.com/products/plx7904.html

$$$$
MRT68921.cdx
csChFnd80/05071909292D

 35 38  0  0  0  0  0  0  0  0999 V2000
    2.4249    3.3124    0.0000 C   0  0  0  0  0  0  0  0  0  0  0  0
    2.4249    1.9124    0.0000 N   0  0  0  0  0  0  0  0  0  0  0  0
    3.6373    1.2124    0.0000 C   0  0  0  0  0  0  0  0  0  0  0  0
    4.8497    1.9124    0.0000 C   0  0  0  0  0  0  0  0  0  0  0  0
    4.8497    3.3124    0.0000 C   0  0  0  0  0  0  0  0  0  0  0  0
    3.6373    4.0124    0.0000 N   0  0  0  0  0  0  0  0  0  0  0  0
    1.2124    4.0124    0.0000 N   0  0  0  0  0  0  0  0  0  0  0  0
    6.0622    1.2124    0.0000 C   0  0  0  0  0  0  0  0  0  0  0  0
    6.0622    4.0124    0.0000 N   0  0  0  0  0  0  0  0  0  0  0  0
    7.2746    3.3124    0.0000 C   0  0  0  0  0  0  0  0  0  0  0  0
    8.4870    4.0124    0.0000 C   0  0  0  0  0  0  0  0  0  0  0  0
    9.6995    3.3124    0.0000 C   0  0  0  0  0  0  0  0  0  0  0  0
   10.9119    4.0124    0.0000 N   0  0  0  0  0  0  0  0  0  0  0  0
   12.1244    3.3124    0.0000 C   0  0  0  0  0  0  0  0  0  0  0  0
   13.3368    4.0124    0.0000 C   0  0  0  0  0  0  0  0  0  0  0  0
    1.2124    5.4124    0.0000 C   0  0  0  0  0  0  0  0  0  0  0  0
    2.4249    6.1124    0.0000 C   0  0  0  0  0  0  0  0  0  0  0  0
    2.4249    7.5124    0.0000 C   0  0  0  0  0  0  0  0  0  0  0  0
    1.2124    8.2124    0.0000 C   0  0  0  0  0  0  0  0  0  0  0  0
    0.0000    7.5124    0.0000 C   0  0  0  0  0  0  0  0  0  0  0  0
    0.0000    6.1124    0.0000 C   0  0  0  0  0  0  0  0  0  0  0  0
    3.6373    8.2124    0.0000 C   0  0  0  0  0  0  0  0  0  0  0  0
    6.7622    0.0000    0.0000 C   0  0  0  0  0  0  0  0  0  0  0  0
    7.4622    1.2124    0.0000 C   0  0  0  0  0  0  0  0  0  0  0  0
   14.6891    3.6501    0.0000 C   0  0  0  0  0  0  0  0  0  0  0  0
   15.0514    5.0024    0.0000 C   0  0  0  0  0  0  0  0  0  0  0  0
   13.6991    5.3647    0.0000 C   0  0  0  0  0  0  0  0  0  0  0  0
   12.1244    1.9124    0.0000 O   0  0  0  0  0  0  0  0  0  0  0  0
    3.6373    9.6076    0.0000 N   0  0  0  0  0  0  0  0  0  0  0  0
    4.8497   10.3076    0.0000 C   0  0  0  0  0  0  0  0  0  0  0  0
    4.8497   11.7076    0.0000 C   0  0  0  0  0  0  0  0  0  0  0  0
    3.6373   12.4076    0.0000 O   0  0  0  0  0  0  0  0  0  0  0  0
    2.4249   11.7076    0.0000 C   0  0  0  0  0  0  0  0  0  0  0  0
    2.4249   10.3076    0.0000 C   0  0  0  0  0  0  0  0  0  0  0  0
    8.5986    7.6816    0.0000 R   0  0  0  0  0  0  0  0  0  0  0  0
  1  2  2  0  0  0  0
  2  3  1  0  0  0  0
  3  4  2  0  0  0  0
  4  5  1  0  0  0  0
  5  6  2  0  0  0  0
  6  1  1  0  0  0  0
  1  7  1  0  0  0  0
  4  8  1  0  0  0  0
  5  9  1  0  0  0  0
  9 10  1  0  0  0  0
 10 11  1  0  0  0  0
 11 12  1  0  0  0  0
 12 13  1  0  0  0  0
 13 14  1  0  0  0  0
 14 15  1  0  0  0  0
  7 16  1  0  0  0  0
 16 17  2  0  0  0  0
 17 18  1  0  0  0  0
 18 19  2  0  0  0  0
 19 20  1  0  0  0  0
 20 21  2  0  0  0  0
 21 16  1  0  0  0  0
 18 22  1  0  0  0  0
  8 23  1  0  0  0  0
 23 24  1  0  0  0  0
 24  8  1  0  0  0  0
 15 25  1  0  0  0  0
 25 26  1  0  0  0  0
 26 27  1  0  0  0  0
 27 15  1  0  0  0  0
 14 28  2  0  0  0  0
 22 29  1  0  0  0  0
 29 30  1  0  0  0  0
 30 31  1  0  0  0  0
 31 32  1  0  0  0  0
 32 33  1  0  0  0  0
 33 34  1  0  0  0  0
 34 29  1  0  0  0  0
A   35
xHCl
M  END
>  <Mol_ID> (573)
3149

>  <Formula> (573)
C26H36N6O2R

>  <MolWeight> (573)
464.60304

>  <Cat> (573)
S7948

>  <Name> (573)
MRT67307 HCl

>  <Synonyms> (573)
N/A

>  <Target> (573)
IB/IKK

>  <Form> (573)
hydrochloride

>  <CAS> (573)
1190378-57-4 (free-base)

>  <URL> (573)
http://www.selleckchem.com/products/mrt67307.html

$$$$
MRT67307.cdx
csChFnd80/05071909292D

 33 36  0  0  0  0  0  0  0  0999 V2000
    3.6373    5.0167    0.0000 C   0  0  0  0  0  0  0  0  0  0  0  0
    3.6373    3.6167    0.0000 C   0  0  0  0  0  0  0  0  0  0  0  0
    4.8497    2.9167    0.0000 C   0  0  0  0  0  0  0  0  0  0  0  0
    6.0622    3.6167    0.0000 C   0  0  0  0  0  0  0  0  0  0  0  0
    6.0622    5.0167    0.0000 C   0  0  0  0  0  0  0  0  0  0  0  0
    4.8497    5.7167    0.0000 C   0  0  0  0  0  0  0  0  0  0  0  0
    2.4249    5.7167    0.0000 C   0  0  0  0  0  0  0  0  0  0  0  0
    1.2124    5.0167    0.0000 C   0  0  0  0  0  0  0  0  0  0  0  0
    1.2124    3.6167    0.0000 N   0  0  0  0  0  0  0  0  0  0  0  0
    2.4249    2.9167    0.0000 C   0  0  0  0  0  0  0  0  0  0  0  0
    0.0000    2.9167    0.0000 C   0  0  0  0  0  0  0  0  0  0  0  0
    7.2746    5.7167    0.0000 N   0  0  0  0  0  0  0  0  0  0  0  0
    8.4870    5.0167    0.0000 C   0  0  0  0  0  0  0  0  0  0  0  0
    8.4870    3.6167    0.0000 N   0  0  0  0  0  0  0  0  0  0  0  0
    9.6995    2.9167    0.0000 C   0  0  0  0  0  0  0  0  0  0  0  0
   10.9119    3.6167    0.0000 C   0  0  0  0  0  0  0  0  0  0  0  0
   10.9119    5.0167    0.0000 C   0  0  0  0  0  0  0  0  0  0  0  0
    9.6995    5.7167    0.0000 N   0  0  0  0  0  0  0  0  0  0  0  0
   12.1244    5.7167    0.0000 N   0  0  0  0  0  0  0  0  0  0  0  0
   12.1244    2.9167    0.0000 C   0  0  0  0  0  0  0  0  0  0  0  0
   13.3368    5.0167    0.0000 C   0  0  0  0  0  0  0  0  0  0  0  0
   14.5492    5.7167    0.0000 C   0  0  0  0  0  0  0  0  0  0  0  0
   15.7617    5.0167    0.0000 C   0  0  0  0  0  0  0  0  0  0  0  0
   16.9741    5.7167    0.0000 N   0  0  0  0  0  0  0  0  0  0  0  0
   18.1865    5.0167    0.0000 C   0  0  0  0  0  0  0  0  0  0  0  0
   19.3990    5.7167    0.0000 C   0  0  0  0  0  0  0  0  0  0  0  0
   18.1865    3.6167    0.0000 O   0  0  0  0  0  0  0  0  0  0  0  0
   20.7513    5.3543    0.0000 C   0  0  0  0  0  0  0  0  0  0  0  0
   21.1136    6.7066    0.0000 C   0  0  0  0  0  0  0  0  0  0  0  0
   19.7613    7.0690    0.0000 C   0  0  0  0  0  0  0  0  0  0  0  0
   12.8244    1.7042    0.0000 C   0  0  0  0  0  0  0  0  0  0  0  0
   13.5244    2.9167    0.0000 C   0  0  0  0  0  0  0  0  0  0  0  0
    8.7406    0.0000    0.0000 R   0  0  0  0  0  0  0  0  0  0  0  0
  1  2  2  0  0  0  0
  2  3  1  0  0  0  0
  3  4  2  0  0  0  0
  4  5  1  0  0  0  0
  5  6  2  0  0  0  0
  6  1  1  0  0  0  0
  1  7  1  0  0  0  0
  7  8  1  0  0  0  0
  8  9  1  0  0  0  0
  9 10  1  0  0  0  0
 10  2  1  0  0  0  0
  9 11  1  0  0  0  0
  5 12  1  0  0  0  0
 12 13  1  0  0  0  0
 13 14  2  0  0  0  0
 14 15  1  0  0  0  0
 15 16  2  0  0  0  0
 16 17  1  0  0  0  0
 17 18  2  0  0  0  0
 18 13  1  0  0  0  0
 17 19  1  0  0  0  0
 16 20  1  0  0  0  0
 19 21  1  0  0  0  0
 21 22  1  0  0  0  0
 22 23  1  0  0  0  0
 23 24  1  0  0  0  0
 24 25  1  0  0  0  0
 25 26  1  0  0  0  0
 25 27  2  0  0  0  0
 26 28  1  0  0  0  0
 28 29  1  0  0  0  0
 29 30  1  0  0  0  0
 30 26  1  0  0  0  0
 20 31  1  0  0  0  0
 31 32  1  0  0  0  0
 32 20  1  0  0  0  0
A   33
XHCl
M  END
>  <Mol_ID> (574)
3150

>  <Formula> (574)
C25H34N6OR

>  <MolWeight> (574)
434.57706

>  <Cat> (574)
S7949

>  <Name> (574)
MRT68921 HCl

>  <Synonyms> (574)
N/A

>  <Target> (574)
Autophagy

>  <Form> (574)
hydrochloride

>  <CAS> (574)
1190379-70-4 (free base)

>  <URL> (574)
http://www.selleckchem.com/products/mrt68921.html

$$$$
BI-78D3.cdx
csChFnd80/05071909292D

 25 28  0  0  0  0  0  0  0  0999 V2000
    8.1618    5.4145    0.0000 C   0  0  0  0  0  0  0  0  0  0  0  0
    8.1618    4.0145    0.0000 C   0  0  0  0  0  0  0  0  0  0  0  0
    9.3742    3.3145    0.0000 C   0  0  0  0  0  0  0  0  0  0  0  0
   10.5867    4.0145    0.0000 C   0  0  0  0  0  0  0  0  0  0  0  0
   10.5867    5.4145    0.0000 C   0  0  0  0  0  0  0  0  0  0  0  0
    9.3742    6.1145    0.0000 C   0  0  0  0  0  0  0  0  0  0  0  0
   11.7991    3.3145    0.0000 O   0  0  0  0  0  0  0  0  0  0  0  0
   13.0115    4.0145    0.0000 C   0  0  0  0  0  0  0  0  0  0  0  0
   13.0115    5.4145    0.0000 C   0  0  0  0  0  0  0  0  0  0  0  0
   11.7991    6.1145    0.0000 O   0  0  0  0  0  0  0  0  0  0  0  0
    6.9494    6.1145    0.0000 N   0  0  0  0  0  0  0  0  0  0  0  0
    6.8030    7.5069    0.0000 C   0  0  0  0  0  0  0  0  0  0  0  0
    5.4336    7.7979    0.0000 N   0  0  0  0  0  0  0  0  0  0  0  0
    4.7336    6.5855    0.0000 N   0  0  0  0  0  0  0  0  0  0  0  0
    5.6704    5.5451    0.0000 C   0  0  0  0  0  0  0  0  0  0  0  0
    7.8434    8.4436    0.0000 O   0  0  0  0  0  0  0  0  0  0  0  0
    5.3793    4.1757    0.0000 S   0  0  0  0  0  0  0  0  0  0  0  0
    4.0479    3.7431    0.0000 C   0  0  0  0  0  0  0  0  0  0  0  0
    2.9152    4.5660    0.0000 N   0  0  0  0  0  0  0  0  0  0  0  0
    1.7826    3.7431    0.0000 C   0  0  0  0  0  0  0  0  0  0  0  0
    2.2152    2.4116    0.0000 C   0  0  0  0  0  0  0  0  0  0  0  0
    3.6152    2.4116    0.0000 S   0  0  0  0  0  0  0  0  0  0  0  0
    1.3923    1.2790    0.0000 N   0  3  0  0  0  0  0  0  0  0  0  0
    1.9618    0.0000    0.0000 O   0  0  0  0  0  0  0  0  0  0  0  0
    0.0000    1.4253    0.0000 O   0  5  0  0  0  0  0  0  0  0  0  0
  1  2  2  0  0  0  0
  2  3  1  0  0  0  0
  3  4  2  0  0  0  0
  4  5  1  0  0  0  0
  5  6  2  0  0  0  0
  6  1  1  0  0  0  0
  4  7  1  0  0  0  0
  7  8  1  0  0  0  0
  8  9  1  0  0  0  0
  9 10  1  0  0  0  0
 10  5  1  0  0  0  0
  1 11  1  0  0  0  0
 11 12  1  0  0  0  0
 12 13  2  0  0  0  0
 13 14  1  0  0  0  0
 14 15  2  0  0  0  0
 15 11  1  0  0  0  0
 12 16  1  0  0  0  0
 15 17  1  0  0  0  0
 17 18  1  0  0  0  0
 18 19  2  0  0  0  0
 19 20  1  0  0  0  0
 20 21  2  0  0  0  0
 21 22  1  0  0  0  0
 22 18  1  0  0  0  0
 21 23  1  0  0  0  0
 23 24  2  0  0  0  0
 23 25  1  0  0  0  0
M  END
>  <Mol_ID> (575)
3153

>  <Formula> (575)
C13H9N5O5S2

>  <MolWeight> (575)
379.37106

>  <Cat> (575)
S8201

>  <Name> (575)
BI-78D3

>  <Synonyms> (575)
N/A

>  <Target> (575)
JNK

>  <Form> (575)
Free Base

>  <CAS> (575)
883065-90-5

>  <URL> (575)
http://www.selleckchem.com/products/bi-78d3.html

$$$$
IC261.cdx
csChFnd80/05071909292D

 23 25  0  0  0  0  0  0  0  0999 V2000
    2.8000    1.2124    0.0000 C   0  0  0  0  0  0  0  0  0  0  0  0
    4.2000    1.2124    0.0000 C   0  0  0  0  0  0  0  0  0  0  0  0
    4.9000    2.4249    0.0000 C   0  0  0  0  0  0  0  0  0  0  0  0
    4.2000    3.6373    0.0000 C   0  0  0  0  0  0  0  0  0  0  0  0
    2.8000    3.6373    0.0000 C   0  0  0  0  0  0  0  0  0  0  0  0
    2.1000    2.4249    0.0000 C   0  0  0  0  0  0  0  0  0  0  0  0
    0.7000    2.4249    0.0000 O   0  0  0  0  0  0  0  0  0  0  0  0
    0.0000    3.6373    0.0000 C   0  0  0  0  0  0  0  0  0  0  0  0
    4.9000    0.0000    0.0000 O   0  0  0  0  0  0  0  0  0  0  0  0
    6.3000    0.0000    0.0000 C   0  0  0  0  0  0  0  0  0  0  0  0
    2.1000    4.8497    0.0000 C   0  0  0  0  0  0  0  0  0  0  0  0
    4.9000    4.8497    0.0000 O   0  0  0  0  0  0  0  0  0  0  0  0
    6.3000    4.8497    0.0000 C   0  0  0  0  0  0  0  0  0  0  0  0
    2.8000    6.0622    0.0000 C   0  0  0  0  0  0  0  0  0  0  0  0
    4.1923    6.2085    0.0000 C   0  0  0  0  0  0  0  0  0  0  0  0
    4.4834    7.5779    0.0000 C   0  0  0  0  0  0  0  0  0  0  0  0
    3.2710    8.2779    0.0000 N   0  0  0  0  0  0  0  0  0  0  0  0
    2.2306    7.3411    0.0000 C   0  0  0  0  0  0  0  0  0  0  0  0
    5.2327    5.2717    0.0000 C   0  0  0  0  0  0  0  0  0  0  0  0
    6.5642    5.7044    0.0000 C   0  0  0  0  0  0  0  0  0  0  0  0
    6.8553    7.0738    0.0000 C   0  0  0  0  0  0  0  0  0  0  0  0
    5.8149    8.0105    0.0000 C   0  0  0  0  0  0  0  0  0  0  0  0
    0.8612    7.6322    0.0000 O   0  0  0  0  0  0  0  0  0  0  0  0
  1  2  2  0  0  0  0
  2  3  1  0  0  0  0
  3  4  2  0  0  0  0
  4  5  1  0  0  0  0
  5  6  2  0  0  0  0
  6  1  1  0  0  0  0
  6  7  1  0  0  0  0
  7  8  1  0  0  0  0
  2  9  1  0  0  0  0
  9 10  1  0  0  0  0
  5 11  1  0  0  0  0
  4 12  1  0  0  0  0
 12 13  1  0  0  0  0
 11 14  2  0  0  0  0
 14 15  1  0  0  0  0
 15 16  2  0  0  0  0
 16 17  1  0  0  0  0
 17 18  1  0  0  0  0
 18 14  1  0  0  0  0
 15 19  1  0  0  0  0
 19 20  2  0  0  0  0
 20 21  1  0  0  0  0
 21 22  2  0  0  0  0
 22 16  1  0  0  0  0
 18 23  2  0  0  0  0
M  END
>  <Mol_ID> (576)
3162

>  <Formula> (576)
C18H17NO4

>  <MolWeight> (576)
311.33188

>  <Cat> (576)
S8237

>  <Name> (576)
IC261

>  <Synonyms> (576)
SU-5607

>  <Target> (576)
Casein Kinase

>  <Form> (576)
Free Base

>  <CAS> (576)
186611-52-9

>  <URL> (576)
http://www.selleckchem.com/products/ic261.html

$$$$
GSK481.cdx
csChFnd80/05071909292D

 28 31  0  0  0  0  0  0  0  0999 V2000
    0.0000    3.6378    0.0000 C   0  0  0  0  0  0  0  0  0  0  0  0
    0.0000    2.2378    0.0000 C   0  0  0  0  0  0  0  0  0  0  0  0
    1.2124    1.5378    0.0000 C   0  0  0  0  0  0  0  0  0  0  0  0
    2.4249    2.2378    0.0000 C   0  0  0  0  0  0  0  0  0  0  0  0
    2.4249    3.6378    0.0000 C   0  0  0  0  0  0  0  0  0  0  0  0
    1.2124    4.3378    0.0000 C   0  0  0  0  0  0  0  0  0  0  0  0
    3.5194    1.3649    0.0000 N   0  0  0  0  0  0  0  0  0  0  0  0
    4.8843    1.6764    0.0000 C   0  0  0  0  0  0  0  0  0  0  0  0
    5.4918    2.9378    0.0000 C   0  0  2  0  0  0  0  0  0  0  0  0
    4.8843    4.1991    0.0000 C   0  0  0  0  0  0  0  0  0  0  0  0
    3.5194    4.5107    0.0000 O   0  0  0  0  0  0  0  0  0  0  0  0
    6.8918    2.9378    0.0000 N   0  0  0  0  0  0  0  0  0  0  0  0
    5.7572    0.5819    0.0000 O   0  0  0  0  0  0  0  0  0  0  0  0
    3.2079    0.0000    0.0000 C   0  0  0  0  0  0  0  0  0  0  0  0
    7.5918    4.1502    0.0000 C   0  0  0  0  0  0  0  0  0  0  0  0
    8.9918    4.1502    0.0000 C   0  0  0  0  0  0  0  0  0  0  0  0
    6.8918    5.3627    0.0000 O   0  0  0  0  0  0  0  0  0  0  0  0
    9.8147    3.0176    0.0000 N   0  0  0  0  0  0  0  0  0  0  0  0
   11.1461    3.4502    0.0000 O   0  0  0  0  0  0  0  0  0  0  0  0
   11.1461    4.8502    0.0000 C   0  0  0  0  0  0  0  0  0  0  0  0
    9.8147    5.2828    0.0000 C   0  0  0  0  0  0  0  0  0  0  0  0
   12.2788    5.6731    0.0000 C   0  0  0  0  0  0  0  0  0  0  0  0
   13.5577    5.1037    0.0000 C   0  0  0  0  0  0  0  0  0  0  0  0
   13.7041    3.7114    0.0000 C   0  0  0  0  0  0  0  0  0  0  0  0
   14.9830    3.1419    0.0000 C   0  0  0  0  0  0  0  0  0  0  0  0
   16.1157    3.9648    0.0000 C   0  0  0  0  0  0  0  0  0  0  0  0
   15.9693    5.3572    0.0000 C   0  0  0  0  0  0  0  0  0  0  0  0
   14.6904    5.9266    0.0000 C   0  0  0  0  0  0  0  0  0  0  0  0
  1  2  2  0  0  0  0
  2  3  1  0  0  0  0
  3  4  2  0  0  0  0
  4  5  1  0  0  0  0
  5  6  2  0  0  0  0
  6  1  1  0  0  0  0
  4  7  1  0  0  0  0
  7  8  1  0  0  0  0
  8  9  1  0  0  0  0
  9 10  1  0  0  0  0
 10 11  1  0  0  0  0
 11  5  1  0  0  0  0
  9 12  1  6  0  0  0
  8 13  2  0  0  0  0
  7 14  1  0  0  0  0
 12 15  1  0  0  0  0
 15 16  1  0  0  0  0
 15 17  2  0  0  0  0
 16 18  2  0  0  0  0
 18 19  1  0  0  0  0
 19 20  1  0  0  0  0
 20 21  2  0  0  0  0
 21 16  1  0  0  0  0
 20 22  1  0  0  0  0
 22 23  1  0  0  0  0
 23 24  2  0  0  0  0
 24 25  1  0  0  0  0
 25 26  2  0  0  0  0
 26 27  1  0  0  0  0
 27 28  2  0  0  0  0
 28 23  1  0  0  0  0
M  END
>  <Mol_ID> (577)
3165

>  <Formula> (577)
C21H19N3O4

>  <MolWeight> (577)
377.39326

>  <Cat> (577)
S8169

>  <Name> (577)
GSK481

>  <Synonyms> (577)
N/A

>  <Target> (577)
TNF-alpha

>  <Form> (577)
Free Base

>  <CAS> (577)
1622849-58-4

>  <URL> (577)
http://www.selleckchem.com/products/gsk481.html

$$$$
GSK2292767.cdx
csChFnd80/05071909292D

 36 40  0  0  0  0  0  0  0  0999 V2000
    2.6406    2.1000    0.0000 C   0  0  0  0  0  0  0  0  0  0  0  0
    2.6406    0.7000    0.0000 C   0  0  0  0  0  0  0  0  0  0  0  0
    3.8530    0.0000    0.0000 N   0  0  0  0  0  0  0  0  0  0  0  0
    5.0655    0.7000    0.0000 C   0  0  0  0  0  0  0  0  0  0  0  0
    5.0655    2.1000    0.0000 C   0  0  0  0  0  0  0  0  0  0  0  0
    3.8530    2.8000    0.0000 C   0  0  0  0  0  0  0  0  0  0  0  0
    1.4281    2.8000    0.0000 N   0  0  0  0  0  0  0  0  0  0  0  0
    1.2124    5.0459    0.0000 S   0  0  0  0  0  0  0  0  0  0  0  0
    1.4281    0.0000    0.0000 O   0  0  0  0  0  0  0  0  0  0  0  0
    6.2779    2.8000    0.0000 C   0  0  0  0  0  0  0  0  0  0  0  0
    7.4903    2.1000    0.0000 C   0  0  0  0  0  0  0  0  0  0  0  0
    8.7028    2.8000    0.0000 C   0  0  0  0  0  0  0  0  0  0  0  0
    8.7028    4.2000    0.0000 C   0  0  0  0  0  0  0  0  0  0  0  0
    7.4903    4.9000    0.0000 C   0  0  0  0  0  0  0  0  0  0  0  0
    6.2779    4.2000    0.0000 C   0  0  0  0  0  0  0  0  0  0  0  0
    7.4903    6.3000    0.0000 C   0  0  0  0  0  0  0  0  0  0  0  0
   10.0342    2.3674    0.0000 N   0  0  0  0  0  0  0  0  0  0  0  0
   10.8571    3.5000    0.0000 N   0  0  0  0  0  0  0  0  0  0  0  0
   10.0342    4.6326    0.0000 C   0  0  0  0  0  0  0  0  0  0  0  0
    8.6229    7.1229    0.0000 N   0  0  0  0  0  0  0  0  0  0  0  0
    8.1903    8.4544    0.0000 C   0  0  0  0  0  0  0  0  0  0  0  0
    6.7903    8.4544    0.0000 C   0  0  0  0  0  0  0  0  0  0  0  0
    6.3577    7.1229    0.0000 O   0  0  0  0  0  0  0  0  0  0  0  0
    5.9674    9.5870    0.0000 C   0  0  0  0  0  0  0  0  0  0  0  0
    6.8492   11.1143    0.0000 N   0  0  0  0  0  0  0  0  0  0  0  0
    8.2492   11.1143    0.0000 C   0  0  0  0  0  0  0  0  0  0  0  0
    8.9492   12.3268    0.0000 C   0  0  1  0  0  0  0  0  0  0  0  0
    8.2492   13.5392    0.0000 O   0  0  0  0  0  0  0  0  0  0  0  0
    6.8492   13.5392    0.0000 C   0  0  1  0  0  0  0  0  0  0  0  0
    6.1492   12.3268    0.0000 C   0  0  0  0  0  0  0  0  0  0  0  0
   10.3492   12.3268    0.0000 C   0  0  0  0  0  0  0  0  0  0  0  0
    6.1492   14.7516    0.0000 C   0  0  0  0  0  0  0  0  0  0  0  0
    0.0000    4.3459    0.0000 C   0  0  0  0  0  0  0  0  0  0  0  0
    2.3859    5.8005    0.0000 O   0  0  0  0  0  0  0  0  0  0  0  0
    0.2225    6.0358    0.0000 O   0  0  0  0  0  0  0  0  0  0  0  0
    0.2199    0.6976    0.0000 C   0  0  0  0  0  0  0  0  0  0  0  0
  1  2  2  0  0  0  0
  2  3  1  0  0  0  0
  3  4  2  0  0  0  0
  4  5  1  0  0  0  0
  5  6  2  0  0  0  0
  6  1  1  0  0  0  0
  1  7  1  0  0  0  0
  7  8  1  0  0  0  0
  2  9  1  0  0  0  0
  5 10  1  0  0  0  0
 10 11  2  0  0  0  0
 11 12  1  0  0  0  0
 12 13  2  0  0  0  0
 13 14  1  0  0  0  0
 14 15  2  0  0  0  0
 15 10  1  0  0  0  0
 14 16  1  0  0  0  0
 12 17  1  0  0  0  0
 17 18  1  0  0  0  0
 18 19  2  0  0  0  0
 19 13  1  0  0  0  0
 16 20  2  0  0  0  0
 20 21  1  0  0  0  0
 21 22  2  0  0  0  0
 22 23  1  0  0  0  0
 23 16  1  0  0  0  0
 22 24  1  0  0  0  0
 24 25  1  0  0  0  0
 25 26  1  0  0  0  0
 26 27  1  0  0  0  0
 27 28  1  0  0  0  0
 28 29  1  0  0  0  0
 29 30  1  0  0  0  0
 30 25  1  0  0  0  0
 27 31  1  1  0  0  0
 29 32  1  1  0  0  0
  8 33  1  0  0  0  0
  8 34  2  0  0  0  0
  8 35  2  0  0  0  0
  9 36  1  0  0  0  0
M  END
>  <Mol_ID> (578)
3172

>  <Formula> (578)
C24H28N6O5S

>  <MolWeight> (578)
512.58132

>  <Cat> (578)
S7938

>  <Name> (578)
GSK2292767

>  <Synonyms> (578)
N/A

>  <Target> (578)
PI3K

>  <Form> (578)
Free Base

>  <CAS> (578)
1254036-66-2

>  <URL> (578)
http://www.selleckchem.com/products/gsk2292767.html

$$$$
AMG337.cdx
csChFnd80/05071909292D

 34 38  0  0  0  0  0  0  0  0999 V2000
    1.9676   13.6423    0.0000 O   0  0  0  0  0  0  0  0  0  0  0  0
    2.2845   12.3051    0.0000 C   0  0  0  0  0  0  0  0  0  0  0  0
    3.6100   11.8698    0.0000 C   0  0  0  0  0  0  0  0  0  0  0  0
    3.9566   10.5514    0.0000 O   0  0  0  0  0  0  0  0  0  0  0  0
    5.2821   10.1161    0.0000 C   0  0  0  0  0  0  0  0  0  0  0  0
    5.6164    8.8203    0.0000 C   0  0  0  0  0  0  0  0  0  0  0  0
    6.9549    8.4097    0.0000 C   0  0  0  0  0  0  0  0  0  0  0  0
    7.9797    9.3635    0.0000 C   0  0  0  0  0  0  0  0  0  0  0  0
    7.6660   10.7280    0.0000 N   0  0  0  0  0  0  0  0  0  0  0  0
    6.3276   11.1386    0.0000 C   0  0  0  0  0  0  0  0  0  0  0  0
    0.6421   14.0776    0.0000 C   0  0  0  0  0  0  0  0  0  0  0  0
    7.2733    7.0396    0.0000 C   0  0  0  0  0  0  0  0  0  0  0  0
    8.6163    6.6368    0.0000 N   0  0  0  0  0  0  0  0  0  0  0  0
    9.6254    7.5953    0.0000 C   0  0  0  0  0  0  0  0  0  0  0  0
    9.3181    8.9530    0.0000 C   0  0  0  0  0  0  0  0  0  0  0  0
    6.2564    6.0845    0.0000 O   0  0  0  0  0  0  0  0  0  0  0  0
    8.9439    5.2914    0.0000 C   0  0  1  0  0  0  0  0  0  0  0  0
    8.5365    3.9459    0.0000 C   0  0  0  0  0  0  0  0  0  0  0  0
   10.2694    4.8560    0.0000 C   0  0  0  0  0  0  0  0  0  0  0  0
    7.2608    3.4944    0.0000 N   0  0  0  0  0  0  0  0  0  0  0  0
    7.2599    2.0944    0.0000 C   0  0  0  0  0  0  0  0  0  0  0  0
    8.5911    1.6609    0.0000 N   0  0  0  0  0  0  0  0  0  0  0  0
    9.4147    2.7930    0.0000 N   0  0  0  0  0  0  0  0  0  0  0  0
    6.0488    4.1951    0.0000 C   0  0  0  0  0  0  0  0  0  0  0  0
    4.8237    3.4753    0.0000 C   0  0  0  0  0  0  0  0  0  0  0  0
    4.8350    2.0959    0.0000 C   0  0  0  0  0  0  0  0  0  0  0  0
    6.0466    1.3951    0.0000 C   0  0  0  0  0  0  0  0  0  0  0  0
    6.0466    0.0000    0.0000 F   0  0  0  0  0  0  0  0  0  0  0  0
    3.6155    4.1728    0.0000 C   0  0  0  0  0  0  0  0  0  0  0  0
    3.4595    5.5448    0.0000 C   0  0  0  0  0  0  0  0  0  0  0  0
    2.0885    5.8365    0.0000 N   0  0  0  0  0  0  0  0  0  0  0  0
    1.3878    4.6246    0.0000 N   0  0  0  0  0  0  0  0  0  0  0  0
    2.3239    3.5836    0.0000 C   0  0  0  0  0  0  0  0  0  0  0  0
    0.0000    4.4813    0.0000 C   0  0  0  0  0  0  0  0  0  0  0  0
  1  2  1  0  0  0  0
  2  3  1  0  0  0  0
  3  4  1  0  0  0  0
  4  5  1  0  0  0  0
  5  6  2  0  0  0  0
  6  7  1  0  0  0  0
  7  8  2  0  0  0  0
  8  9  1  0  0  0  0
  9 10  2  0  0  0  0
 10  5  1  0  0  0  0
  1 11  1  0  0  0  0
  7 12  1  0  0  0  0
 12 13  1  0  0  0  0
 13 14  1  0  0  0  0
 14 15  2  0  0  0  0
 15  8  1  0  0  0  0
 12 16  2  0  0  0  0
 13 17  1  0  0  0  0
 17 18  1  0  0  0  0
 17 19  1  6  0  0  0
 18 20  1  0  0  0  0
 20 21  1  0  0  0  0
 21 22  2  0  0  0  0
 22 23  1  0  0  0  0
 23 18  2  0  0  0  0
 20 24  1  0  0  0  0
 24 25  2  0  0  0  0
 25 26  1  0  0  0  0
 26 27  2  0  0  0  0
 27 21  1  0  0  0  0
 27 28  1  0  0  0  0
 25 29  1  0  0  0  0
 29 30  1  0  0  0  0
 30 31  2  0  0  0  0
 31 32  1  0  0  0  0
 32 33  1  0  0  0  0
 33 29  2  0  0  0  0
 32 34  1  0  0  0  0
M  END
>  <Mol_ID> (579)
3173

>  <Formula> (579)
C23H22FN7O3

>  <MolWeight> (579)
463.4642832

>  <Cat> (579)
S8167

>  <Name> (579)
AMG 337

>  <Synonyms> (579)
N/A

>  <Target> (579)
c-Met

>  <Form> (579)
Free Base

>  <CAS> (579)
1173699-31-4

>  <URL> (579)
http://www.selleckchem.com/products/amg-337.html

$$$$
NQDI-1.cdx
csChFnd80/05071909292D

 24 27  0  0  0  0  0  0  0  0999 V2000
    3.6373    3.5000    0.0000 C   0  0  0  0  0  0  0  0  0  0  0  0
    3.6373    2.1000    0.0000 C   0  0  0  0  0  0  0  0  0  0  0  0
    4.8497    1.4000    0.0000 C   0  0  0  0  0  0  0  0  0  0  0  0
    6.0622    2.1000    0.0000 C   0  0  0  0  0  0  0  0  0  0  0  0
    6.0622    3.5000    0.0000 C   0  0  0  0  0  0  0  0  0  0  0  0
    4.8497    4.2000    0.0000 C   0  0  0  0  0  0  0  0  0  0  0  0
    2.4249    4.2000    0.0000 C   0  0  0  0  0  0  0  0  0  0  0  0
    1.2124    3.5000    0.0000 C   0  0  0  0  0  0  0  0  0  0  0  0
    1.2124    2.1000    0.0000 C   0  0  0  0  0  0  0  0  0  0  0  0
    2.4249    1.4000    0.0000 C   0  0  0  0  0  0  0  0  0  0  0  0
    7.2746    1.4000    0.0000 C   0  0  0  0  0  0  0  0  0  0  0  0
    8.4870    2.1000    0.0000 C   0  0  0  0  0  0  0  0  0  0  0  0
    8.4870    3.5000    0.0000 C   0  0  0  0  0  0  0  0  0  0  0  0
    7.2746    4.2000    0.0000 C   0  0  0  0  0  0  0  0  0  0  0  0
    4.8497    5.6000    0.0000 C   0  0  0  0  0  0  0  0  0  0  0  0
    7.2746    5.6000    0.0000 N   0  0  0  0  0  0  0  0  0  0  0  0
    6.0622    6.3000    0.0000 C   0  0  0  0  0  0  0  0  0  0  0  0
    6.0622    7.7000    0.0000 O   0  0  0  0  0  0  0  0  0  0  0  0
    4.8497    0.0000    0.0000 O   0  0  0  0  0  0  0  0  0  0  0  0
    3.6373    6.3000    0.0000 C   0  0  0  0  0  0  0  0  0  0  0  0
    2.4249    5.6000    0.0000 O   0  0  0  0  0  0  0  0  0  0  0  0
    3.6373    7.7000    0.0000 O   0  0  0  0  0  0  0  0  0  0  0  0
    1.2124    6.3000    0.0000 C   0  0  0  0  0  0  0  0  0  0  0  0
    0.0000    5.6000    0.0000 C   0  0  0  0  0  0  0  0  0  0  0  0
  1  2  2  0  0  0  0
  2  3  1  0  0  0  0
  3  4  1  0  0  0  0
  4  5  2  0  0  0  0
  5  6  1  0  0  0  0
  6  1  1  0  0  0  0
  1  7  1  0  0  0  0
  7  8  2  0  0  0  0
  8  9  1  0  0  0  0
  9 10  2  0  0  0  0
 10  2  1  0  0  0  0
  4 11  1  0  0  0  0
 11 12  2  0  0  0  0
 12 13  1  0  0  0  0
 13 14  2  0  0  0  0
 14  5  1  0  0  0  0
  6 15  2  0  0  0  0
 14 16  1  0  0  0  0
 16 17  1  0  0  0  0
 17 15  1  0  0  0  0
 17 18  2  0  0  0  0
  3 19  2  0  0  0  0
 15 20  1  0  0  0  0
 20 21  1  0  0  0  0
 20 22  2  0  0  0  0
 21 23  1  0  0  0  0
 23 24  1  0  0  0  0
M  END
>  <Mol_ID> (580)
3180

>  <Formula> (580)
C19H13NO4

>  <MolWeight> (580)
319.31082

>  <Cat> (580)
S8289

>  <Name> (580)
NQDI-1

>  <Synonyms> (580)
N/A

>  <Target> (580)
Caspase

>  <Form> (580)
Free Base

>  <CAS> (580)
175026-96-7

>  <URL> (580)
http://www.selleckchem.com/products/nqdi-1.html

$$$$
Olmutinib (HM61713, BI 1482694).cdx
csChFnd80/05071909292D

 35 39  0  0  0  0  0  0  0  0999 V2000
    4.8497    6.3000    0.0000 C   0  0  0  0  0  0  0  0  0  0  0  0
    4.8497    4.9000    0.0000 C   0  0  0  0  0  0  0  0  0  0  0  0
    6.0622    4.2000    0.0000 C   0  0  0  0  0  0  0  0  0  0  0  0
    7.2746    4.9000    0.0000 C   0  0  0  0  0  0  0  0  0  0  0  0
    7.2746    6.3000    0.0000 C   0  0  0  0  0  0  0  0  0  0  0  0
    6.0622    7.0000    0.0000 C   0  0  0  0  0  0  0  0  0  0  0  0
    3.6373    4.2000    0.0000 N   0  0  0  0  0  0  0  0  0  0  0  0
    8.4870    7.0000    0.0000 N   0  0  0  0  0  0  0  0  0  0  0  0
    9.6995    6.3000    0.0000 C   0  0  0  0  0  0  0  0  0  0  0  0
    9.6995    4.9000    0.0000 N   0  0  0  0  0  0  0  0  0  0  0  0
   10.9119    4.2000    0.0000 C   0  0  0  0  0  0  0  0  0  0  0  0
   12.1244    4.9000    0.0000 C   0  0  0  0  0  0  0  0  0  0  0  0
   12.1244    6.3000    0.0000 C   0  0  0  0  0  0  0  0  0  0  0  0
   10.9119    7.0000    0.0000 N   0  0  0  0  0  0  0  0  0  0  0  0
   13.4558    4.4674    0.0000 S   0  0  0  0  0  0  0  0  0  0  0  0
   14.2787    5.6000    0.0000 C   0  0  0  0  0  0  0  0  0  0  0  0
   13.4558    6.7326    0.0000 C   0  0  0  0  0  0  0  0  0  0  0  0
   10.9119    2.8000    0.0000 O   0  0  0  0  0  0  0  0  0  0  0  0
   12.1244    2.1000    0.0000 C   0  0  0  0  0  0  0  0  0  0  0  0
   12.1244    0.7000    0.0000 C   0  0  0  0  0  0  0  0  0  0  0  0
   13.3368    0.0000    0.0000 C   0  0  0  0  0  0  0  0  0  0  0  0
   14.5492    0.7000    0.0000 C   0  0  0  0  0  0  0  0  0  0  0  0
   14.5492    2.1000    0.0000 C   0  0  0  0  0  0  0  0  0  0  0  0
   13.3368    2.8000    0.0000 C   0  0  0  0  0  0  0  0  0  0  0  0
   15.7617    2.8000    0.0000 N   0  0  0  0  0  0  0  0  0  0  0  0
   16.9741    2.1000    0.0000 C   0  0  0  0  0  0  0  0  0  0  0  0
   18.1865    2.8000    0.0000 C   0  0  0  0  0  0  0  0  0  0  0  0
   19.3990    2.1000    0.0000 C   0  0  0  0  0  0  0  0  0  0  0  0
   16.9741    0.7000    0.0000 O   0  0  0  0  0  0  0  0  0  0  0  0
    2.4249    4.9000    0.0000 C   0  0  0  0  0  0  0  0  0  0  0  0
    1.2124    4.2000    0.0000 C   0  0  0  0  0  0  0  0  0  0  0  0
    1.2124    2.8000    0.0000 N   0  0  0  0  0  0  0  0  0  0  0  0
    2.4249    2.1000    0.0000 C   0  0  0  0  0  0  0  0  0  0  0  0
    3.6373    2.8000    0.0000 C   0  0  0  0  0  0  0  0  0  0  0  0
    0.0000    2.1000    0.0000 C   0  0  0  0  0  0  0  0  0  0  0  0
  1  2  2  0  0  0  0
  2  3  1  0  0  0  0
  3  4  2  0  0  0  0
  4  5  1  0  0  0  0
  5  6  2  0  0  0  0
  6  1  1  0  0  0  0
  2  7  1  0  0  0  0
  5  8  1  0  0  0  0
  8  9  1  0  0  0  0
  9 10  2  0  0  0  0
 10 11  1  0  0  0  0
 11 12  2  0  0  0  0
 12 13  1  0  0  0  0
 13 14  2  0  0  0  0
 14  9  1  0  0  0  0
 12 15  1  0  0  0  0
 15 16  1  0  0  0  0
 16 17  2  0  0  0  0
 17 13  1  0  0  0  0
 11 18  1  0  0  0  0
 18 19  1  0  0  0  0
 19 20  2  0  0  0  0
 20 21  1  0  0  0  0
 21 22  2  0  0  0  0
 22 23  1  0  0  0  0
 23 24  2  0  0  0  0
 24 19  1  0  0  0  0
 23 25  1  0  0  0  0
 25 26  1  0  0  0  0
 26 27  1  0  0  0  0
 27 28  2  0  0  0  0
 26 29  2  0  0  0  0
  7 30  1  0  0  0  0
 30 31  1  0  0  0  0
 31 32  1  0  0  0  0
 32 33  1  0  0  0  0
 33 34  1  0  0  0  0
 34  7  1  0  0  0  0
 32 35  1  0  0  0  0
M  END
>  <Mol_ID> (581)
3188

>  <Formula> (581)
C26H26N6O2S

>  <MolWeight> (581)
486.58864

>  <Cat> (581)
S8294

>  <Name> (581)
Olmutinib (HM61713, BI 1482694)

>  <Synonyms> (581)
BI 1482694, HM61713, HM71224

>  <Target> (581)
EGFR

>  <Form> (581)
Free Base

>  <CAS> (581)
1353550-13-6

>  <URL> (581)
http://www.selleckchem.com/products/olmutinib-hm61713-bi-1482694.html

$$$$
LY3023414.cdx
csChFnd80/05071909292D

 30 33  0  0  0  0  0  0  0  0999 V2000
    2.4249    4.2000    0.0000 C   0  0  0  0  0  0  0  0  0  0  0  0
    2.4249    2.8000    0.0000 C   0  0  0  0  0  0  0  0  0  0  0  0
    3.6373    2.1000    0.0000 C   0  0  0  0  0  0  0  0  0  0  0  0
    4.8497    2.8000    0.0000 C   0  0  0  0  0  0  0  0  0  0  0  0
    4.8497    4.2000    0.0000 C   0  0  0  0  0  0  0  0  0  0  0  0
    3.6373    4.9000    0.0000 N   0  0  0  0  0  0  0  0  0  0  0  0
    1.2124    2.1000    0.0000 C   0  0  0  0  0  0  0  0  0  0  0  0
    0.0000    2.8000    0.0000 C   0  0  0  0  0  0  0  0  0  0  0  0
    1.2124    0.7000    0.0000 C   0  0  0  0  0  0  0  0  0  0  0  0
    1.2124    3.5000    0.0000 O   0  0  0  0  0  0  0  0  0  0  0  0
    6.0622    2.1000    0.0000 C   0  0  0  0  0  0  0  0  0  0  0  0
    6.0622    0.7000    0.0000 C   0  0  0  0  0  0  0  0  0  0  0  0
    7.2746    0.0000    0.0000 C   0  0  0  0  0  0  0  0  0  0  0  0
    8.4870    0.7000    0.0000 C   0  0  0  0  0  0  0  0  0  0  0  0
    8.4870    2.1000    0.0000 C   0  0  0  0  0  0  0  0  0  0  0  0
    7.2746    2.8000    0.0000 C   0  0  0  0  0  0  0  0  0  0  0  0
    9.6995    0.0000    0.0000 N   0  0  0  0  0  0  0  0  0  0  0  0
   10.9119    0.7000    0.0000 C   0  0  0  0  0  0  0  0  0  0  0  0
   10.9119    2.1000    0.0000 C   0  0  0  0  0  0  0  0  0  0  0  0
    9.6995    2.8000    0.0000 C   0  0  0  0  0  0  0  0  0  0  0  0
   11.9523    3.0368    0.0000 N   0  0  0  0  0  0  0  0  0  0  0  0
   11.3829    4.3157    0.0000 C   0  0  0  0  0  0  0  0  0  0  0  0
    9.9906    4.1694    0.0000 N   0  0  0  0  0  0  0  0  0  0  0  0
   13.3217    2.7457    0.0000 C   0  0  0  0  0  0  0  0  0  0  0  0
   12.0829    5.5282    0.0000 O   0  0  0  0  0  0  0  0  0  0  0  0
    9.0538    5.2098    0.0000 C   0  0  0  0  0  0  0  0  0  0  0  0
    9.4864    6.5413    0.0000 C   0  0  1  0  0  0  0  0  0  0  0  0
    8.5496    7.5817    0.0000 O   0  0  0  0  0  0  0  0  0  0  0  0
   10.8558    6.8324    0.0000 C   0  0  0  0  0  0  0  0  0  0  0  0
    7.1802    7.2906    0.0000 C   0  0  0  0  0  0  0  0  0  0  0  0
  1  2  2  0  0  0  0
  2  3  1  0  0  0  0
  3  4  2  0  0  0  0
  4  5  1  0  0  0  0
  5  6  2  0  0  0  0
  6  1  1  0  0  0  0
  2  7  1  0  0  0  0
  7  8  1  0  0  0  0
  7  9  1  0  0  0  0
  7 10  1  0  0  0  0
  4 11  1  0  0  0  0
 11 12  2  0  0  0  0
 12 13  1  0  0  0  0
 13 14  2  0  0  0  0
 14 15  1  0  0  0  0
 15 16  2  0  0  0  0
 16 11  1  0  0  0  0
 14 17  1  0  0  0  0
 17 18  2  0  0  0  0
 18 19  1  0  0  0  0
 19 20  2  0  0  0  0
 20 15  1  0  0  0  0
 19 21  1  0  0  0  0
 21 22  1  0  0  0  0
 22 23  1  0  0  0  0
 23 20  1  0  0  0  0
 21 24  1  0  0  0  0
 22 25  2  0  0  0  0
 23 26  1  0  0  0  0
 26 27  1  0  0  0  0
 27 28  1  0  0  0  0
 27 29  1  1  0  0  0
 28 30  1  0  0  0  0
M  END
>  <Mol_ID> (582)
3211

>  <Formula> (582)
C23H26N4O3

>  <MolWeight> (582)
406.47754

>  <Cat> (582)
S8322

>  <Name> (582)
LY3023414

>  <Synonyms> (582)
GTPL8918

>  <Target> (582)
Akt

>  <Form> (582)
Free Base

>  <CAS> (582)
1386874-06-1

>  <URL> (582)
http://www.selleckchem.com/products/ly3023414.html

$$$$
Selonsertib (GS-4997).cdx
csChFnd80/05071909292D

 33 37  0  0  0  0  0  0  0  0999 V2000
    6.0995    3.6985    0.0000 C   0  0  0  0  0  0  0  0  0  0  0  0
    6.0995    2.2985    0.0000 C   0  0  0  0  0  0  0  0  0  0  0  0
    7.3119    1.5985    0.0000 C   0  0  0  0  0  0  0  0  0  0  0  0
    8.5243    2.2985    0.0000 C   0  0  0  0  0  0  0  0  0  0  0  0
    8.5243    3.6985    0.0000 C   0  0  0  0  0  0  0  0  0  0  0  0
    7.3119    4.3985    0.0000 C   0  0  0  0  0  0  0  0  0  0  0  0
    4.8870    4.3985    0.0000 N   0  0  0  0  0  0  0  0  0  0  0  0
    9.7368    4.3985    0.0000 C   0  0  0  0  0  0  0  0  0  0  0  0
    4.8870    1.5985    0.0000 C   0  0  0  0  0  0  0  0  0  0  0  0
    9.7368    1.5985    0.0000 F   0  0  0  0  0  0  0  0  0  0  0  0
   10.9492    3.6985    0.0000 N   0  0  0  0  0  0  0  0  0  0  0  0
    9.7368    5.7985    0.0000 O   0  0  0  0  0  0  0  0  0  0  0  0
   12.1617    4.3985    0.0000 C   0  0  0  0  0  0  0  0  0  0  0  0
   13.3741    3.6985    0.0000 N   0  0  0  0  0  0  0  0  0  0  0  0
   14.5865    4.3985    0.0000 C   0  0  0  0  0  0  0  0  0  0  0  0
   14.5865    5.7985    0.0000 C   0  0  0  0  0  0  0  0  0  0  0  0
   13.3741    6.4985    0.0000 C   0  0  0  0  0  0  0  0  0  0  0  0
   12.1617    5.7985    0.0000 C   0  0  0  0  0  0  0  0  0  0  0  0
   15.7990    3.6985    0.0000 C   0  0  0  0  0  0  0  0  0  0  0  0
   15.9453    2.3062    0.0000 N   0  0  0  0  0  0  0  0  0  0  0  0
   17.3147    2.0151    0.0000 C   0  0  0  0  0  0  0  0  0  0  0  0
   18.0147    3.2275    0.0000 N   0  0  0  0  0  0  0  0  0  0  0  0
   17.0779    4.2680    0.0000 N   0  0  0  0  0  0  0  0  0  0  0  0
    4.7407    5.7909    0.0000 C   0  0  0  0  0  0  0  0  0  0  0  0
    3.3713    6.0819    0.0000 N   0  0  0  0  0  0  0  0  0  0  0  0
    2.6713    4.8695    0.0000 C   0  0  0  0  0  0  0  0  0  0  0  0
    3.6081    3.8291    0.0000 C   0  0  0  0  0  0  0  0  0  0  0  0
    1.2790    4.7232    0.0000 C   0  0  0  0  0  0  0  0  0  0  0  0
   14.9049    1.3694    0.0000 C   0  0  0  0  0  0  0  0  0  0  0  0
   13.5734    1.8020    0.0000 C   0  0  0  0  0  0  0  0  0  0  0  0
   15.1960    0.0000    0.0000 C   0  0  0  0  0  0  0  0  0  0  0  0
    0.0000    5.2926    0.0000 C   0  0  0  0  0  0  0  0  0  0  0  0
    0.1463    3.9003    0.0000 C   0  0  0  0  0  0  0  0  0  0  0  0
  1  2  2  0  0  0  0
  2  3  1  0  0  0  0
  3  4  2  0  0  0  0
  4  5  1  0  0  0  0
  5  6  2  0  0  0  0
  6  1  1  0  0  0  0
  1  7  1  0  0  0  0
  5  8  1  0  0  0  0
  2  9  1  0  0  0  0
  4 10  1  0  0  0  0
  8 11  1  0  0  0  0
  8 12  2  0  0  0  0
 11 13  1  0  0  0  0
 13 14  2  0  0  0  0
 14 15  1  0  0  0  0
 15 16  2  0  0  0  0
 16 17  1  0  0  0  0
 17 18  2  0  0  0  0
 18 13  1  0  0  0  0
 15 19  1  0  0  0  0
 19 20  1  0  0  0  0
 20 21  1  0  0  0  0
 21 22  2  0  0  0  0
 22 23  1  0  0  0  0
 23 19  2  0  0  0  0
  7 24  1  0  0  0  0
 24 25  2  0  0  0  0
 25 26  1  0  0  0  0
 26 27  2  0  0  0  0
 27  7  1  0  0  0  0
 26 28  1  0  0  0  0
 20 29  1  0  0  0  0
 29 30  1  0  0  0  0
 29 31  1  0  0  0  0
 28 32  1  0  0  0  0
 32 33  1  0  0  0  0
 33 28  1  0  0  0  0
M  END
>  <Mol_ID> (583)
3214

>  <Formula> (583)
C24H24FN7O

>  <MolWeight> (583)
445.4920632

>  <Cat> (583)
S8292

>  <Name> (583)
Selonsertib (GS-4997)

>  <Synonyms> (583)
N/A

>  <Target> (583)
Caspase

>  <Form> (583)
Free Base

>  <CAS> (583)
1448428-04-3

>  <URL> (583)
http://www.selleckchem.com/products/selonsertib-gs-4997.html

$$$$
LY333531.cdx
csChFnd80/05071909292D

 36 40  0  0  0  0  0  0  0  0999 V2000
    5.1134    7.9998    0.0000 C   0  0  0  0  0  0  0  0  0  0  0  0
    6.5892    7.9998    0.0000 C   0  0  0  0  0  0  0  0  0  0  0  0
    7.0057    9.3279    0.0000 C   0  0  0  0  0  0  0  0  0  0  0  0
    5.8628   10.1448    0.0000 N   0  0  0  0  0  0  0  0  0  0  0  0
    4.7155    9.3301    0.0000 C   0  0  0  0  0  0  0  0  0  0  0  0
    3.3916    9.7856    0.0000 O   0  0  0  0  0  0  0  0  0  0  0  0
    8.3332    9.7725    0.0000 O   0  0  0  0  0  0  0  0  0  0  0  0
    4.1027    6.8754    0.0000 C   0  0  0  0  0  0  0  0  0  0  0  0
    7.6161    6.9729    0.0000 C   0  0  0  0  0  0  0  0  0  0  0  0
    2.7024    6.8754    0.0000 C   0  0  0  0  0  0  0  0  0  0  0  0
    2.2424    5.5559    0.0000 C   0  0  0  0  0  0  0  0  0  0  0  0
    3.2925    4.7206    0.0000 N   0  0  3  0  0  0  0  0  0  0  0  0
    4.4330    5.5176    0.0000 C   0  0  0  0  0  0  0  0  0  0  0  0
    7.2164    5.5891    0.0000 C   0  0  0  0  0  0  0  0  0  0  0  0
    8.3392    4.7709    0.0000 N   0  0  3  0  0  0  0  0  0  0  0  0
    9.4353    5.6254    0.0000 C   0  0  0  0  0  0  0  0  0  0  0  0
    8.9795    6.9729    0.0000 C   0  0  0  0  0  0  0  0  0  0  0  0
    1.7908    7.9088    0.0000 C   0  0  0  0  0  0  0  0  0  0  0  0
    0.4377    7.6090    0.0000 C   0  0  0  0  0  0  0  0  0  0  0  0
    0.0000    6.2640    0.0000 C   0  0  0  0  0  0  0  0  0  0  0  0
    0.9749    5.2891    0.0000 C   0  0  0  0  0  0  0  0  0  0  0  0
   10.7863    5.3481    0.0000 C   0  0  0  0  0  0  0  0  0  0  0  0
   11.7112    6.3881    0.0000 C   0  0  0  0  0  0  0  0  0  0  0  0
   11.2747    7.7151    0.0000 C   0  0  0  0  0  0  0  0  0  0  0  0
    9.9072    8.0026    0.0000 C   0  0  0  0  0  0  0  0  0  0  0  0
    3.5584    3.3380    0.0000 C   0  0  0  0  0  0  0  0  0  0  0  0
    8.0114    3.3635    0.0000 C   0  0  0  0  0  0  0  0  0  0  0  0
    4.9444    3.1548    0.0000 C   0  0  0  0  0  0  0  0  0  0  0  0
    5.0491    1.7545    0.0000 O   0  0  0  0  0  0  0  0  0  0  0  0
    6.4140    1.7545    0.0000 C   0  0  1  0  0  0  0  0  0  0  0  0
    6.5841    3.1896    0.0000 C   0  0  0  0  0  0  0  0  0  0  0  0
    7.3439    0.7079    0.0000 C   0  0  0  0  0  0  0  0  0  0  0  0
    8.7152    0.9900    0.0000 N   0  0  0  0  0  0  0  0  0  0  0  0
    9.7052    0.0000    0.0000 C   0  0  0  0  0  0  0  0  0  0  0  0
    9.0776    2.3422    0.0000 C   0  0  0  0  0  0  0  0  0  0  0  0
   11.5852    2.5053    0.0000 Cl  0  0  0  0  0  0  0  0  0  0  0  0
  1  2  2  0  0  0  0
  2  3  1  0  0  0  0
  3  4  1  0  0  0  0
  4  5  1  0  0  0  0
  5  1  1  0  0  0  0
  5  6  2  0  0  0  0
  3  7  2  0  0  0  0
  1  8  1  0  0  0  0
  2  9  1  0  0  0  0
  8 10  1  0  0  0  0
 10 11  2  0  0  0  0
 11 12  1  0  0  0  0
 12 13  1  0  0  0  0
 13  8  2  0  0  0  0
  9 14  2  0  0  0  0
 14 15  1  0  0  0  0
 15 16  1  0  0  0  0
 16 17  2  0  0  0  0
 17  9  1  0  0  0  0
 10 18  1  0  0  0  0
 18 19  2  0  0  0  0
 19 20  1  0  0  0  0
 20 21  2  0  0  0  0
 21 11  1  0  0  0  0
 16 22  1  0  0  0  0
 22 23  2  0  0  0  0
 23 24  1  0  0  0  0
 24 25  2  0  0  0  0
 25 17  1  0  0  0  0
 12 26  1  0  0  0  0
 15 27  1  0  0  0  0
 26 28  1  0  0  0  0
 28 29  1  0  0  0  0
 29 30  1  0  0  0  0
 27 31  1  0  0  0  0
 31 30  1  0  0  0  0
 30 32  1  1  0  0  0
 32 33  1  0  0  0  0
 33 34  1  0  0  0  0
 33 35  1  0  0  0  0
M  END
>  <Mol_ID> (584)
3224

>  <Formula> (584)
C28H29ClN4O3

>  <MolWeight> (584)
505.00786

>  <Cat> (584)
S7663

>  <Name> (584)
LY333531 HCl

>  <Synonyms> (584)
Ruboxistaurin

>  <Target> (584)
PKC

>  <Form> (584)
hydrochloride

>  <CAS> (584)
169939-93-9

>  <URL> (584)
http://www.selleckchem.com/products/ly333531.html

$$$$
FRAX486.cdx
csChFnd80/05071909292D

 35 39  0  0  0  0  0  0  0  0999 V2000
    9.6775    2.8362    0.0000 N   0  0  0  0  0  0  0  0  0  0  0  0
    9.6706    4.2407    0.0000 C   0  0  0  0  0  0  0  0  0  0  0  0
    8.4583    4.9327    0.0000 N   0  0  0  0  0  0  0  0  0  0  0  0
    7.2479    4.2288    0.0000 C   0  0  0  0  0  0  0  0  0  0  0  0
    7.2524    2.8286    0.0000 C   0  0  0  0  0  0  0  0  0  0  0  0
    8.4671    2.1323    0.0000 C   0  0  0  0  0  0  0  0  0  0  0  0
    4.8308    2.8147    0.0000 C   0  0  0  0  0  0  0  0  0  0  0  0
    3.6224    2.1171    0.0000 C   0  0  0  0  0  0  0  0  0  0  0  0
    2.4033    2.8053    0.0000 C   0  0  0  0  0  0  0  0  0  0  0  0
    1.2008    2.1032    0.0000 C   0  0  0  0  0  0  0  0  0  0  0  0
    1.2084    0.6977    0.0000 C   0  0  0  0  0  0  0  0  0  0  0  0
    2.4200    0.0068    0.0000 C   0  0  0  0  0  0  0  0  0  0  0  0
    3.6304    0.7107    0.0000 C   0  0  0  0  0  0  0  0  0  0  0  0
    2.4033    4.2006    0.0000 Cl  0  0  0  0  0  0  0  0  0  0  0  0
    0.0000    0.0000    0.0000 Cl  0  0  0  0  0  0  0  0  0  0  0  0
   10.8790    4.9383    0.0000 N   0  0  0  0  0  0  0  0  0  0  0  0
   12.0853    4.2419    0.0000 C   0  0  0  0  0  0  0  0  0  0  0  0
   12.0875    2.8853    0.0000 C   0  0  0  0  0  0  0  0  0  0  0  0
   13.3083    2.1625    0.0000 C   0  0  0  0  0  0  0  0  0  0  0  0
   14.5236    2.8601    0.0000 C   0  0  0  0  0  0  0  0  0  0  0  0
   14.5372    4.2421    0.0000 C   0  0  0  0  0  0  0  0  0  0  0  0
   13.3373    4.9637    0.0000 C   0  0  0  0  0  0  0  0  0  0  0  0
   13.3083    0.7672    0.0000 F   0  0  0  0  0  0  0  0  0  0  0  0
   15.7320    2.1624    0.0000 N   0  0  0  0  0  0  0  0  0  0  0  0
   15.7249    0.7804    0.0000 C   0  0  0  0  0  0  0  0  0  0  0  0
   16.9282    0.0644    0.0000 C   0  0  0  0  0  0  0  0  0  0  0  0
   18.1498    0.7485    0.0000 N   0  0  0  0  0  0  0  0  0  0  0  0
   18.1682    2.1486    0.0000 C   0  0  0  0  0  0  0  0  0  0  0  0
   16.9650    2.8646    0.0000 C   0  0  0  0  0  0  0  0  0  0  0  0
    6.0351    4.9250    0.0000 N   0  0  0  0  0  0  0  0  0  0  0  0
    4.8236    4.2366    0.0000 C   0  0  0  0  0  0  0  0  0  0  0  0
    6.0258    2.1387    0.0000 C   0  0  0  0  0  0  0  0  0  0  0  0
    3.6152    4.9342    0.0000 O   0  0  0  0  0  0  0  0  0  0  0  0
    6.0351    6.3203    0.0000 C   0  0  0  0  0  0  0  0  0  0  0  0
    7.2444    7.0185    0.0000 C   0  0  0  0  0  0  0  0  0  0  0  0
  1  2  2  0  0  0  0
  2  3  1  0  0  0  0
  3  4  2  0  0  0  0
  4  5  1  0  0  0  0
  5  6  2  0  0  0  0
  6  1  1  0  0  0  0
  7  8  1  0  0  0  0
  8  9  2  0  0  0  0
  9 10  1  0  0  0  0
 10 11  2  0  0  0  0
 11 12  1  0  0  0  0
 12 13  2  0  0  0  0
 13  8  1  0  0  0  0
  9 14  1  0  0  0  0
 11 15  1  0  0  0  0
  2 16  1  0  0  0  0
 16 17  1  0  0  0  0
 17 18  2  0  0  0  0
 18 19  1  0  0  0  0
 19 20  2  0  0  0  0
 20 21  1  0  0  0  0
 21 22  2  0  0  0  0
 22 17  1  0  0  0  0
 19 23  1  0  0  0  0
 20 24  1  0  0  0  0
 24 25  1  0  0  0  0
 25 26  1  0  0  0  0
 26 27  1  0  0  0  0
 27 28  1  0  0  0  0
 28 29  1  0  0  0  0
 29 24  1  0  0  0  0
  4 30  1  0  0  0  0
 30 31  1  0  0  0  0
 31  7  1  0  0  0  0
  7 32  2  0  0  0  0
 32  5  1  0  0  0  0
 31 33  2  0  0  0  0
 30 34  1  0  0  0  0
 34 35  1  0  0  0  0
M  END
>  <Mol_ID> (585)
3225

>  <Formula> (585)
C25H23Cl2FN6O

>  <MolWeight> (585)
513.3941232

>  <Cat> (585)
S7807

>  <Name> (585)
FRAX486

>  <Synonyms> (585)
N/A

>  <Target> (585)
PAK

>  <Form> (585)
Free Base

>  <CAS> (585)
1232030-35-1

>  <URL> (585)
http://www.selleckchem.com/products/frax486.html

$$$$
VO-Ohpic.cdx
csChFnd80/05071909292D

 27 27  0  0  0  0  0  0  0  0999 V2000
    4.4584    4.9000    0.0000 C   0  0  0  0  0  0  0  0  0  0  0  0
    4.4584    3.5000    0.0000 C   0  0  0  0  0  0  0  0  0  0  0  0
    5.6709    2.8000    0.0000 C   0  0  0  0  0  0  0  0  0  0  0  0
    6.8833    3.5000    0.0000 C   0  0  0  0  0  0  0  0  0  0  0  0
    6.8833    4.9000    0.0000 C   0  0  0  0  0  0  0  0  0  0  0  0
    5.6709    5.6000    0.0000 N   0  0  0  0  0  0  0  0  0  0  0  0
    8.0957    5.6000    0.0000 C   0  0  0  0  0  0  0  0  0  0  0  0
    9.3082    4.9000    0.0000 O   0  0  0  0  0  0  0  0  0  0  0  0
    8.0957    7.0000    0.0000 O   0  0  0  0  0  0  0  0  0  0  0  0
    9.3082    3.5000    0.0000 V   0  0  0  0  0  0  0  0  0  0  0  0
    8.0957    2.8000    0.0000 O   0  0  0  0  0  0  0  0  0  0  0  0
    8.0957    4.2000    0.0000 O   0  0  0  0  0  0  0  0  0  0  0  0
    9.3082    2.1000    0.0000 O   0  0  0  0  0  0  0  0  0  0  0  0
   10.5206    1.4000    0.0000 C   0  0  0  0  0  0  0  0  0  0  0  0
   11.7330    2.1000    0.0000 C   0  0  0  0  0  0  0  0  0  0  0  0
   11.7330    3.5000    0.0000 N   0  0  0  0  0  0  0  0  0  0  0  0
   12.9455    1.4000    0.0000 C   0  0  0  0  0  0  0  0  0  0  0  0
   14.1579    2.1000    0.0000 C   0  0  0  0  0  0  0  0  0  0  0  0
   14.1579    3.5000    0.0000 C   0  0  0  0  0  0  0  0  0  0  0  0
   12.9455    4.2000    0.0000 C   0  0  0  0  0  0  0  0  0  0  0  0
   10.5206    0.0000    0.0000 O   0  0  0  0  0  0  0  0  0  0  0  0
   12.9455    0.0000    0.0000 O   0  0  0  0  0  0  0  0  0  0  0  0
   10.4440    5.4379    0.0000 O   0  0  0  0  0  0  0  0  0  0  0  0
   10.5206    2.8000    0.0000 H   0  0  0  0  0  0  0  0  0  0  0  0
    9.7222   22.4547    0.0000 O   0  0  0  0  0  0  0  0  0  0  0  0
    0.0000   22.4547    0.0000 O   0  0  0  0  0  0  0  0  0  0  0  0
    4.8611   12.7324    0.0000 O   0  0  0  0  0  0  0  0  0  0  0  0
  1  2  2  0  0  0  0
  2  3  1  0  0  0  0
  3  4  2  0  0  0  0
  4  5  1  0  0  0  0
  5  6  2  0  0  0  0
  6  1  1  0  0  0  0
  5  7  1  0  0  0  0
  7  8  1  0  0  0  0
  7  9  2  0  0  0  0
  8 10  1  0  0  0  0
  4 11  1  0  0  0  0
 11 10  1  0  0  0  0
 10 12  2  0  0  0  0
 10 13  1  0  0  0  0
 13 14  1  0  0  0  0
 14 15  1  0  0  0  0
 15 16  2  0  0  0  0
 10 16  1  0  0  0  0
 15 17  1  0  0  0  0
 17 18  2  0  0  0  0
 18 19  1  0  0  0  0
 19 20  2  0  0  0  0
 20 16  1  0  0  0  0
 14 21  2  0  0  0  0
 17 22  1  0  0  0  0
 10 23  1  0  0  0  0
 10 24  1  0  0  0  0
M  END
>  <Mol_ID> (586)
3230

>  <Formula> (586)
C12H15N2O11V

>  <MolWeight> (586)
414.1958

>  <Cat> (586)
S8174

>  <Name> (586)
VO-Ohpic trihydrate

>  <Synonyms> (586)
N/A

>  <Target> (586)
Others

>  <Form> (586)
trihydrate

>  <CAS> (586)
476310-60-8

>  <URL> (586)
http://www.selleckchem.com/products/vo-ohpic.html

$$$$
EAI045.cdx
csChFnd80/05071909292D

 27 30  0  0  0  0  0  0  0  0999 V2000
    4.6406    2.1000    0.0000 C   0  0  0  0  0  0  0  0  0  0  0  0
    4.6406    0.7000    0.0000 C   0  0  0  0  0  0  0  0  0  0  0  0
    5.8531    0.0000    0.0000 C   0  0  0  0  0  0  0  0  0  0  0  0
    7.0655    0.7000    0.0000 C   0  0  0  0  0  0  0  0  0  0  0  0
    7.0655    2.1000    0.0000 C   0  0  0  0  0  0  0  0  0  0  0  0
    5.8531    2.8000    0.0000 C   0  0  0  0  0  0  0  0  0  0  0  0
    5.8531    4.2000    0.0000 C   0  0  3  0  0  0  0  0  0  0  0  0
    3.4282    2.8000    0.0000 O   0  0  0  0  0  0  0  0  0  0  0  0
    4.6406    4.9000    0.0000 C   0  0  0  0  0  0  0  0  0  0  0  0
    7.0655    4.9000    0.0000 N   0  0  0  0  0  0  0  0  0  0  0  0
    3.4282    4.2000    0.0000 N   0  0  0  0  0  0  0  0  0  0  0  0
    4.6406    6.3000    0.0000 O   0  0  0  0  0  0  0  0  0  0  0  0
    2.2157    4.9000    0.0000 C   0  0  0  0  0  0  0  0  0  0  0  0
    8.3445    4.3306    0.0000 C   0  0  0  0  0  0  0  0  0  0  0  0
    9.2812    5.3710    0.0000 C   0  0  0  0  0  0  0  0  0  0  0  0
    8.5812    6.5834    0.0000 C   0  0  0  0  0  0  0  0  0  0  0  0
    7.2118    6.2923    0.0000 C   0  0  0  0  0  0  0  0  0  0  0  0
    2.0694    6.2923    0.0000 S   0  0  0  0  0  0  0  0  0  0  0  0
    0.7000    6.5834    0.0000 C   0  0  0  0  0  0  0  0  0  0  0  0
    0.0000    5.3710    0.0000 C   0  0  0  0  0  0  0  0  0  0  0  0
    0.9368    4.3306    0.0000 N   0  0  0  0  0  0  0  0  0  0  0  0
    8.6355    2.9612    0.0000 O   0  0  0  0  0  0  0  0  0  0  0  0
   10.6812    5.3710    0.0000 C   0  0  0  0  0  0  0  0  0  0  0  0
   11.3812    6.5834    0.0000 C   0  0  0  0  0  0  0  0  0  0  0  0
   10.6812    7.7958    0.0000 C   0  0  0  0  0  0  0  0  0  0  0  0
    9.2812    7.7958    0.0000 C   0  0  0  0  0  0  0  0  0  0  0  0
    8.2779    0.0000    0.0000 F   0  0  0  0  0  0  0  0  0  0  0  0
  1  2  2  0  0  0  0
  2  3  1  0  0  0  0
  3  4  2  0  0  0  0
  4  5  1  0  0  0  0
  5  6  2  0  0  0  0
  6  1  1  0  0  0  0
  6  7  1  0  0  0  0
  1  8  1  0  0  0  0
  7  9  1  0  0  0  0
  7 10  1  0  0  0  0
  9 11  1  0  0  0  0
  9 12  2  0  0  0  0
 11 13  1  0  0  0  0
 10 14  1  0  0  0  0
 14 15  1  0  0  0  0
 15 16  2  0  0  0  0
 16 17  1  0  0  0  0
 17 10  1  0  0  0  0
 13 18  1  0  0  0  0
 18 19  1  0  0  0  0
 19 20  2  0  0  0  0
 20 21  1  0  0  0  0
 21 13  2  0  0  0  0
 14 22  2  0  0  0  0
 15 23  1  0  0  0  0
 23 24  2  0  0  0  0
 24 25  1  0  0  0  0
 25 26  2  0  0  0  0
 26 16  1  0  0  0  0
  4 27  1  0  0  0  0
M  END
>  <Mol_ID> (587)
3235

>  <Formula> (587)
C19H14FN3O3S

>  <MolWeight> (587)
383.3961632

>  <Cat> (587)
S8242

>  <Name> (587)
EAI045

>  <Synonyms> (587)
N/A

>  <Target> (587)
EGFR

>  <Form> (587)
Free Base

>  <CAS> (587)
1942114-09-1

>  <URL> (587)
http://www.selleckchem.com/products/eai045.html

$$$$
AZD8835.cdx
csChFnd80/05071909292D

 34 37  0  0  0  0  0  0  0  0999 V2000
   11.5287    2.1187    0.0000 C   0  0  0  0  0  0  0  0  0  0  0  0
   11.5287    0.7187    0.0000 C   0  0  0  0  0  0  0  0  0  0  0  0
   12.7411    0.0187    0.0000 N   0  0  0  0  0  0  0  0  0  0  0  0
   13.9536    0.7187    0.0000 C   0  0  0  0  0  0  0  0  0  0  0  0
   13.9536    2.1187    0.0000 C   0  0  0  0  0  0  0  0  0  0  0  0
   12.7411    2.8187    0.0000 N   0  0  0  0  0  0  0  0  0  0  0  0
   10.3163    2.8187    0.0000 C   0  0  0  0  0  0  0  0  0  0  0  0
   10.1699    4.2110    0.0000 N   0  0  0  0  0  0  0  0  0  0  0  0
    8.8005    4.5021    0.0000 N   0  0  0  0  0  0  0  0  0  0  0  0
    8.1005    3.2896    0.0000 C   0  0  0  0  0  0  0  0  0  0  0  0
    9.0373    2.2492    0.0000 N   0  0  0  0  0  0  0  0  0  0  0  0
   11.2103    5.1478    0.0000 C   0  0  0  0  0  0  0  0  0  0  0  0
   10.9192    6.5172    0.0000 C   0  0  0  0  0  0  0  0  0  0  0  0
    6.7082    3.1433    0.0000 C   0  0  0  0  0  0  0  0  0  0  0  0
    5.8853    4.2759    0.0000 C   0  0  0  0  0  0  0  0  0  0  0  0
    4.4930    4.1296    0.0000 C   0  0  0  0  0  0  0  0  0  0  0  0
    3.9235    2.8506    0.0000 N   0  0  0  0  0  0  0  0  0  0  0  0
    4.7464    1.7180    0.0000 C   0  0  0  0  0  0  0  0  0  0  0  0
    6.1388    1.8643    0.0000 C   0  0  0  0  0  0  0  0  0  0  0  0
    2.5312    2.7043    0.0000 C   0  0  0  0  0  0  0  0  0  0  0  0
    1.7083    3.8369    0.0000 O   0  0  0  0  0  0  0  0  0  0  0  0
    1.9618    1.4253    0.0000 C   0  0  0  0  0  0  0  0  0  0  0  0
    0.5694    1.2790    0.0000 C   0  0  0  0  0  0  0  0  0  0  0  0
    0.0000    0.0000    0.0000 O   0  0  0  0  0  0  0  0  0  0  0  0
   15.1660    0.0187    0.0000 N   0  0  0  0  0  0  0  0  0  0  0  0
   15.1660    2.8187    0.0000 C   0  0  0  0  0  0  0  0  0  0  0  0
   16.4450    2.2492    0.0000 N   0  0  0  0  0  0  0  0  0  0  0  0
   17.3818    3.2896    0.0000 N   0  0  0  0  0  0  0  0  0  0  0  0
   16.6818    4.5021    0.0000 C   0  0  0  0  0  0  0  0  0  0  0  0
   15.3123    4.2110    0.0000 O   0  0  0  0  0  0  0  0  0  0  0  0
   17.2512    5.7810    0.0000 C   0  0  0  0  0  0  0  0  0  0  0  0
   18.6435    5.9274    0.0000 C   0  0  0  0  0  0  0  0  0  0  0  0
   16.4283    6.9137    0.0000 C   0  0  0  0  0  0  0  0  0  0  0  0
   17.6135    7.1333    0.0000 C   0  0  0  0  0  0  0  0  0  0  0  0
  1  2  2  0  0  0  0
  2  3  1  0  0  0  0
  3  4  2  0  0  0  0
  4  5  1  0  0  0  0
  5  6  2  0  0  0  0
  6  1  1  0  0  0  0
  1  7  1  0  0  0  0
  7  8  1  0  0  0  0
  8  9  1  0  0  0  0
  9 10  2  0  0  0  0
 10 11  1  0  0  0  0
 11  7  2  0  0  0  0
  8 12  1  0  0  0  0
 12 13  1  0  0  0  0
 10 14  1  0  0  0  0
 14 15  1  0  0  0  0
 15 16  1  0  0  0  0
 16 17  1  0  0  0  0
 17 18  1  0  0  0  0
 18 19  1  0  0  0  0
 19 14  1  0  0  0  0
 17 20  1  0  0  0  0
 20 21  2  0  0  0  0
 20 22  1  0  0  0  0
 22 23  1  0  0  0  0
 23 24  1  0  0  0  0
  4 25  1  0  0  0  0
  5 26  1  0  0  0  0
 26 27  2  0  0  0  0
 27 28  1  0  0  0  0
 28 29  2  0  0  0  0
 29 30  1  0  0  0  0
 30 26  1  0  0  0  0
 29 31  1  0  0  0  0
 31 32  1  0  0  0  0
 31 33  1  0  0  0  0
 31 34  1  0  0  0  0
M  END
>  <Mol_ID> (588)
3240

>  <Formula> (588)
C22H31N9O3

>  <MolWeight> (588)
469.54004

>  <Cat> (588)
S7966

>  <Name> (588)
AZD8835

>  <Synonyms> (588)
N/A

>  <Target> (588)
PI3K

>  <Form> (588)
Free Base

>  <CAS> (588)
1620576-64-8

>  <URL> (588)
http://www.selleckchem.com/products/azd8835.html

$$$$
Necrosulfonamide.cdx
csChFnd80/05071909292D

 31 33  0  0  0  0  0  0  0  0999 V2000
    9.0903    4.8455    0.0000 C   0  0  0  0  0  0  0  0  0  0  0  0
    7.6903    4.8455    0.0000 C   0  0  0  0  0  0  0  0  0  0  0  0
    6.9903    3.6331    0.0000 C   0  0  0  0  0  0  0  0  0  0  0  0
    7.6903    2.4207    0.0000 C   0  0  0  0  0  0  0  0  0  0  0  0
    9.0903    2.4207    0.0000 C   0  0  0  0  0  0  0  0  0  0  0  0
    9.7903    3.6331    0.0000 C   0  0  0  0  0  0  0  0  0  0  0  0
   11.1903    3.6331    0.0000 N   0  0  0  0  0  0  0  0  0  0  0  0
   11.8903    2.4207    0.0000 C   0  0  0  0  0  0  0  0  0  0  0  0
   11.1903    1.2082    0.0000 O   0  0  0  0  0  0  0  0  0  0  0  0
   13.2903    2.4207    0.0000 C   0  0  0  0  0  0  0  0  0  0  0  0
   13.9903    1.2082    0.0000 C   0  0  0  0  0  0  0  0  0  0  0  0
   15.3903    1.2082    0.0000 C   0  0  0  0  0  0  0  0  0  0  0  0
   16.2132    0.0756    0.0000 C   0  0  0  0  0  0  0  0  0  0  0  0
   17.5447    0.5082    0.0000 C   0  0  0  0  0  0  0  0  0  0  0  0
   17.5447    1.9082    0.0000 C   0  0  0  0  0  0  0  0  0  0  0  0
   16.2132    2.3409    0.0000 S   0  0  0  0  0  0  0  0  0  0  0  0
    5.5903    3.6331    0.0000 S   0  0  0  0  0  0  0  0  0  0  0  0
    4.1903    3.6331    0.0000 N   0  0  0  0  0  0  0  0  0  0  0  0
    3.4927    2.4249    0.0000 C   0  0  0  0  0  0  0  0  0  0  0  0
    2.0927    2.4249    0.0000 C   0  0  0  0  0  0  0  0  0  0  0  0
    1.3927    1.2124    0.0000 N   0  0  0  0  0  0  0  0  0  0  0  0
    2.0927    0.0000    0.0000 C   0  0  0  0  0  0  0  0  0  0  0  0
    3.4927    0.0000    0.0000 C   0  0  0  0  0  0  0  0  0  0  0  0
    4.1927    1.2124    0.0000 N   0  0  0  0  0  0  0  0  0  0  0  0
    1.3951    3.6331    0.0000 O   0  0  0  0  0  0  0  0  0  0  0  0
    0.0000    3.6331    0.0000 C   0  0  0  0  0  0  0  0  0  0  0  0
    5.5903    5.0282    0.0000 O   0  0  0  0  0  0  0  0  0  0  0  0
    5.5903    2.2380    0.0000 O   0  0  0  0  0  0  0  0  0  0  0  0
   18.6734    2.7283    0.0000 N   0  3  0  0  0  0  0  0  0  0  0  0
   18.5270    4.1206    0.0000 O   0  0  0  0  0  0  0  0  0  0  0  0
   19.9523    2.1588    0.0000 O   0  5  0  0  0  0  0  0  0  0  0  0
  1  2  2  0  0  0  0
  2  3  1  0  0  0  0
  3  4  2  0  0  0  0
  4  5  1  0  0  0  0
  5  6  2  0  0  0  0
  6  1  1  0  0  0  0
  6  7  1  0  0  0  0
  7  8  1  0  0  0  0
  8  9  2  0  0  0  0
  8 10  1  0  0  0  0
 10 11  2  0  0  0  0
 11 12  1  0  0  0  0
 12 13  2  0  0  0  0
 13 14  1  0  0  0  0
 14 15  2  0  0  0  0
 15 16  1  0  0  0  0
 16 12  1  0  0  0  0
  3 17  1  0  0  0  0
 17 18  1  0  0  0  0
 18 19  1  0  0  0  0
 19 20  2  0  0  0  0
 20 21  1  0  0  0  0
 21 22  2  0  0  0  0
 22 23  1  0  0  0  0
 23 24  2  0  0  0  0
 24 19  1  0  0  0  0
 20 25  1  0  0  0  0
 25 26  1  0  0  0  0
 17 27  2  0  0  0  0
 17 28  2  0  0  0  0
 15 29  1  0  0  0  0
 29 30  2  0  0  0  0
 29 31  1  0  0  0  0
M  END
>  <Mol_ID> (589)
3241

>  <Formula> (589)
C18H15N5O6S2

>  <MolWeight> (589)
461.4716

>  <Cat> (589)
S8251

>  <Name> (589)
Necrosulfonamide

>  <Synonyms> (589)
N/A

>  <Target> (589)
Others

>  <Form> (589)
Free Base

>  <CAS> (589)
1360614-48-7

>  <URL> (589)
http://www.selleckchem.com/products/necrosulfonamide.html

$$$$
BAY-61-3606.cdx
csChFnd80/05071909292D

 31 32  0  0  0  0  0  0  0  0999 V2000
   16.9421    2.8000    0.0000 C   0  0  0  0  0  0  0  0  0  0  0  0
   15.7296    2.1000    0.0000 C   0  0  0  0  0  0  0  0  0  0  0  0
   15.7296    0.7000    0.0000 C   0  0  0  0  0  0  0  0  0  0  0  0
   16.9421    0.0000    0.0000 C   0  0  0  0  0  0  0  0  0  0  0  0
   18.1545    0.7000    0.0000 C   0  0  0  0  0  0  0  0  0  0  0  0
   18.1545    2.1000    0.0000 N   0  0  0  0  0  0  0  0  0  0  0  0
   14.5172    2.8000    0.0000 C   0  0  0  0  0  0  0  0  0  0  0  0
   14.5172    4.2000    0.0000 O   0  0  0  0  0  0  0  0  0  0  0  0
   13.3048    2.1000    0.0000 N   0  0  0  0  0  0  0  0  0  0  0  0
   16.9421    4.2000    0.0000 N   0  0  0  0  0  0  0  0  0  0  0  0
   18.1545    4.9000    0.0000 C   0  0  0  0  0  0  0  0  0  0  0  0
   18.1545    6.3000    0.0000 N   0  0  0  0  0  0  0  0  0  0  0  0
   19.3670    7.0000    0.0000 C   0  0  0  0  0  0  0  0  0  0  0  0
   20.5794    6.3000    0.0000 C   0  0  0  0  0  0  0  0  0  0  0  0
   20.5794    4.9000    0.0000 C   0  0  0  0  0  0  0  0  0  0  0  0
   19.3670    4.2000    0.0000 N   0  0  0  0  0  0  0  0  0  0  0  0
   19.0759    8.3694    0.0000 N   0  0  0  0  0  0  0  0  0  0  0  0
   17.6835    8.5157    0.0000 C   0  0  0  0  0  0  0  0  0  0  0  0
   17.1141    7.2368    0.0000 C   0  0  0  0  0  0  0  0  0  0  0  0
   21.7918    4.2000    0.0000 C   0  0  0  0  0  0  0  0  0  0  0  0
   23.0043    4.9000    0.0000 C   0  0  0  0  0  0  0  0  0  0  0  0
   24.2167    4.2000    0.0000 C   0  0  0  0  0  0  0  0  0  0  0  0
   24.2167    2.8000    0.0000 C   0  0  0  0  0  0  0  0  0  0  0  0
   23.0043    2.1000    0.0000 C   0  0  0  0  0  0  0  0  0  0  0  0
   21.7918    2.8000    0.0000 C   0  0  0  0  0  0  0  0  0  0  0  0
   25.4291    2.1000    0.0000 O   0  0  0  0  0  0  0  0  0  0  0  0
   26.6416    2.8000    0.0000 C   0  0  0  0  0  0  0  0  0  0  0  0
   25.4291    4.9000    0.0000 O   0  0  0  0  0  0  0  0  0  0  0  0
   26.6416    4.2000    0.0000 C   0  0  0  0  0  0  0  0  0  0  0  0
    9.7222   27.1075    0.0000 Cl  0  0  0  0  0  0  0  0  0  0  0  0
    0.0000   27.1075    0.0000 Cl  0  0  0  0  0  0  0  0  0  0  0  0
  1  2  1  0  0  0  0
  2  3  2  0  0  0  0
  3  4  1  0  0  0  0
  4  5  2  0  0  0  0
  5  6  1  0  0  0  0
  1  6  2  0  0  0  0
  7  8  2  0  0  0  0
  7  9  1  0  0  0  0
  2  7  1  0  0  0  0
 11 12  1  0  0  0  0
 12 13  1  0  0  0  0
 13 14  1  0  0  0  0
 14 15  2  0  0  0  0
 15 16  1  0  0  0  0
 11 16  2  0  0  0  0
 17 18  1  0  0  0  0
 18 19  2  0  0  0  0
 12 19  1  0  0  0  0
 13 17  2  0  0  0  0
 20 21  1  0  0  0  0
 21 22  2  0  0  0  0
 22 23  1  0  0  0  0
 23 24  2  0  0  0  0
 24 25  1  0  0  0  0
 20 25  2  0  0  0  0
 26 27  1  0  0  0  0
 23 26  1  0  0  0  0
 28 29  1  0  0  0  0
 22 28  1  0  0  0  0
 15 20  1  0  0  0  0
 10 11  1  0  0  0  0
  1 10  1  0  0  0  0
M  END
>  <Mol_ID> (590)
3242

>  <Formula> (590)
C20H20Cl2N6O3

>  <MolWeight> (590)
463.3172

>  <Cat> (590)
S7006

>  <Name> (590)
BAY-61-3606

>  <Synonyms> (590)
N/A

>  <Target> (590)
Syk

>  <Form> (590)
dihydrochloride

>  <CAS> (590)
648903-57-5

>  <URL> (590)
http://www.selleckchem.com/products/bay-61-3606.html

$$$$
WNK463.cdx
csChFnd80/05071909292D

 33 36  0  0  0  0  0  0  0  0999 V2000
    0.0000    9.8544    0.0000 C   0  0  0  0  0  0  0  0  0  0  0  0
    0.0000    8.4544    0.0000 C   0  0  0  0  0  0  0  0  0  0  0  0
    1.2124    7.7544    0.0000 C   0  0  0  0  0  0  0  0  0  0  0  0
    2.4249    8.4544    0.0000 N   0  0  0  0  0  0  0  0  0  0  0  0
    2.4249    9.8544    0.0000 C   0  0  0  0  0  0  0  0  0  0  0  0
    1.2124   10.5544    0.0000 C   0  0  0  0  0  0  0  0  0  0  0  0
    1.2124    6.3544    0.0000 N   0  0  0  0  0  0  0  0  0  0  0  0
    1.2124   11.9544    0.0000 C   0  0  0  0  0  0  0  0  0  0  0  0
    0.0000    5.6544    0.0000 C   0  0  0  0  0  0  0  0  0  0  0  0
    0.0000    4.2544    0.0000 C   0  0  0  0  0  0  0  0  0  0  0  0
    1.2124    3.5544    0.0000 C   0  0  0  0  0  0  0  0  0  0  0  0
    2.4249    4.2544    0.0000 C   0  0  0  0  0  0  0  0  0  0  0  0
    2.4249    5.6544    0.0000 C   0  0  0  0  0  0  0  0  0  0  0  0
    1.2124    2.1544    0.0000 N   0  0  0  0  0  0  0  0  0  0  0  0
    0.0798    1.3315    0.0000 C   0  0  0  0  0  0  0  0  0  0  0  0
    0.5124    0.0000    0.0000 N   0  0  0  0  0  0  0  0  0  0  0  0
    1.9124    0.0000    0.0000 C   0  0  0  0  0  0  0  0  0  0  0  0
    2.3451    1.3315    0.0000 C   0  0  0  0  0  0  0  0  0  0  0  0
    2.3451   12.7773    0.0000 O   0  0  0  0  0  0  0  0  0  0  0  0
    1.9124   14.1088    0.0000 C   0  0  0  0  0  0  0  0  0  0  0  0
    0.5124   14.1088    0.0000 N   0  0  0  0  0  0  0  0  0  0  0  0
    0.0798   12.7773    0.0000 N   0  0  0  0  0  0  0  0  0  0  0  0
    2.7353   15.2414    0.0000 C   0  0  0  0  0  0  0  0  0  0  0  0
    2.1659   16.5203    0.0000 F   0  0  0  0  0  0  0  0  0  0  0  0
    4.1277   15.0950    0.0000 F   0  0  0  0  0  0  0  0  0  0  0  0
    3.5582   16.3740    0.0000 F   0  0  0  0  0  0  0  0  0  0  0  0
    3.6765    1.7641    0.0000 C   0  0  0  0  0  0  0  0  0  0  0  0
    4.7169    0.8273    0.0000 N   0  0  0  0  0  0  0  0  0  0  0  0
    3.9676    3.1335    0.0000 O   0  0  0  0  0  0  0  0  0  0  0  0
    6.0484    1.2599    0.0000 C   0  0  0  0  0  0  0  0  0  0  0  0
    7.0888    0.3232    0.0000 C   0  0  0  0  0  0  0  0  0  0  0  0
    6.3395    2.6294    0.0000 C   0  0  0  0  0  0  0  0  0  0  0  0
    7.3799    1.6926    0.0000 C   0  0  0  0  0  0  0  0  0  0  0  0
  1  2  2  0  0  0  0
  2  3  1  0  0  0  0
  3  4  2  0  0  0  0
  4  5  1  0  0  0  0
  5  6  2  0  0  0  0
  6  1  1  0  0  0  0
  3  7  1  0  0  0  0
  6  8  1  0  0  0  0
  7  9  1  0  0  0  0
  9 10  1  0  0  0  0
 10 11  1  0  0  0  0
 11 12  1  0  0  0  0
 12 13  1  0  0  0  0
 13  7  1  0  0  0  0
 11 14  1  0  0  0  0
 14 15  1  0  0  0  0
 15 16  2  0  0  0  0
 16 17  1  0  0  0  0
 17 18  2  0  0  0  0
 18 14  1  0  0  0  0
  8 19  1  0  0  0  0
 19 20  1  0  0  0  0
 20 21  2  0  0  0  0
 21 22  1  0  0  0  0
 22  8  2  0  0  0  0
 20 23  1  0  0  0  0
 23 24  1  0  0  0  0
 23 25  1  0  0  0  0
 23 26  1  0  0  0  0
 18 27  1  0  0  0  0
 27 28  1  0  0  0  0
 27 29  2  0  0  0  0
 28 30  1  0  0  0  0
 30 31  1  0  0  0  0
 30 32  1  0  0  0  0
 30 33  1  0  0  0  0
M  END
>  <Mol_ID> (591)
3244

>  <Formula> (591)
C21H24F3N7O2

>  <MolWeight> (591)
463.4561696

>  <Cat> (591)
S8358

>  <Name> (591)
WNK463

>  <Synonyms> (591)
N/A

>  <Target> (591)
Others

>  <Form> (591)
Free Base

>  <CAS> (591)
2012607-27-9

>  <URL> (591)
http://www.selleckchem.com/products/wnk463.html

$$$$
LOXO-101.cdx
csChFnd80/05071909292D

 36 39  0  0  0  0  0  0  0  0999 V2000
    5.1544    6.4200    0.0000 C   0  0  0  0  0  0  0  0  0  0  0  0
    5.1544    5.0200    0.0000 C   0  0  0  0  0  0  0  0  0  0  0  0
    6.3668    4.3200    0.0000 N   0  0  0  0  0  0  0  0  0  0  0  0
    7.5792    5.0200    0.0000 C   0  0  0  0  0  0  0  0  0  0  0  0
    7.5792    6.4200    0.0000 N   0  0  0  0  0  0  0  0  0  0  0  0
    6.3668    7.1200    0.0000 C   0  0  0  0  0  0  0  0  0  0  0  0
    8.9107    4.5874    0.0000 C   0  0  0  0  0  0  0  0  0  0  0  0
    9.7336    5.7200    0.0000 C   0  0  0  0  0  0  0  0  0  0  0  0
    8.9107    6.8526    0.0000 N   0  0  0  0  0  0  0  0  0  0  0  0
    3.9419    4.3200    0.0000 N   0  0  0  0  0  0  0  0  0  0  0  0
    9.3433    3.2559    0.0000 N   0  0  0  0  0  0  0  0  0  0  0  0
   10.7127    2.9648    0.0000 C   0  0  0  0  0  0  0  0  0  0  0  0
   11.1454    1.6333    0.0000 O   0  0  0  0  0  0  0  0  0  0  0  0
   11.6495    4.0052    0.0000 N   0  0  0  0  0  0  0  0  0  0  0  0
   13.0419    3.8589    0.0000 C   0  0  0  0  0  0  0  0  0  0  0  0
   13.6113    5.1378    0.0000 C   0  0  0  0  0  0  0  0  0  0  0  0
   12.5709    6.0746    0.0000 C   0  0  1  0  0  0  0  0  0  0  0  0
   11.3584    5.3746    0.0000 C   0  0  0  0  0  0  0  0  0  0  0  0
    2.6630    4.8894    0.0000 C   0  0  2  0  0  0  0  0  0  0  0  0
    1.7262    3.8490    0.0000 C   0  0  0  0  0  0  0  0  0  0  0  0
    2.4262    2.6366    0.0000 C   0  0  0  0  0  0  0  0  0  0  0  0
    3.7956    2.9276    0.0000 C   0  0  0  0  0  0  0  0  0  0  0  0
    2.3719    6.2588    0.0000 C   0  0  0  0  0  0  0  0  0  0  0  0
    3.4123    7.1956    0.0000 C   0  0  0  0  0  0  0  0  0  0  0  0
    3.1212    8.5650    0.0000 C   0  0  0  0  0  0  0  0  0  0  0  0
    1.7897    8.9976    0.0000 C   0  0  0  0  0  0  0  0  0  0  0  0
    0.7493    8.0608    0.0000 C   0  0  0  0  0  0  0  0  0  0  0  0
    1.0404    6.6914    0.0000 C   0  0  0  0  0  0  0  0  0  0  0  0
    4.1616    9.5018    0.0000 F   0  0  0  0  0  0  0  0  0  0  0  0
    0.0000    5.7547    0.0000 F   0  0  0  0  0  0  0  0  0  0  0  0
   12.7172    7.4669    0.0000 O   0  0  0  0  0  0  0  0  0  0  0  0
    5.2340    1.3951    0.0000 S   0  0  0  0  0  0  0  0  0  0  0  0
    5.2340    0.0000    0.0000 O   0  0  0  0  0  0  0  0  0  0  0  0
    5.2340    2.7903    0.0000 O   0  0  0  0  0  0  0  0  0  0  0  0
    3.8389    1.3951    0.0000 O   0  0  0  0  0  0  0  0  0  0  0  0
    6.6292    1.3951    0.0000 O   0  0  0  0  0  0  0  0  0  0  0  0
  2  3  2  0  0  0  0
  4  5  1  0  0  0  0
  6  1  2  0  0  0  0
  4  7  2  0  0  0  0
  7  8  1  0  0  0  0
  8  9  2  0  0  0  0
  9  5  1  0  0  0  0
  6  5  1  0  0  0  0
  4  3  1  0  0  0  0
  1  2  1  0  0  0  0
  2 10  1  0  0  0  0
  7 11  1  0  0  0  0
 11 12  1  0  0  0  0
 12 13  2  0  0  0  0
 12 14  1  0  0  0  0
 14 15  1  0  0  0  0
 15 16  1  0  0  0  0
 16 17  1  0  0  0  0
 17 18  1  0  0  0  0
 18 14  1  0  0  0  0
 10 19  1  0  0  0  0
 19 20  1  0  0  0  0
 20 21  1  0  0  0  0
 21 22  1  0  0  0  0
 22 10  1  0  0  0  0
 19 23  1  6  0  0  0
 23 24  2  0  0  0  0
 24 25  1  0  0  0  0
 25 26  2  0  0  0  0
 26 27  1  0  0  0  0
 27 28  2  0  0  0  0
 28 23  1  0  0  0  0
 25 29  1  0  0  0  0
 28 30  1  0  0  0  0
 17 31  1  1  0  0  0
 32 33  2  0  0  0  0
 32 34  2  0  0  0  0
 32 35  1  0  0  0  0
 32 36  1  0  0  0  0
M  END
>  <Mol_ID> (592)
3245

>  <Formula> (592)
C21H24F2N6O6S

>  <MolWeight> (592)
526.5136664

>  <Cat> (592)
S7960

>  <Name> (592)
LOXO-101(sulfate)

>  <Synonyms> (592)
N/A

>  <Target> (592)
Trk receptor

>  <Form> (592)
sulfate

>  <CAS> (592)
1223405-08-0

>  <URL> (592)
http://www.selleckchem.com/products/loxo-101.html

$$$$
APS-2-79.cdx
csChFnd80/05071909292D

 30 32  0  0  0  0  0  0  0  0999 V2000
    2.4249    2.1000    0.0000 C   0  0  0  0  0  0  0  0  0  0  0  0
    2.4249    0.7000    0.0000 C   0  0  0  0  0  0  0  0  0  0  0  0
    3.6373    0.0000    0.0000 C   0  0  0  0  0  0  0  0  0  0  0  0
    4.8497    0.7000    0.0000 C   0  0  0  0  0  0  0  0  0  0  0  0
    4.8497    2.1000    0.0000 C   0  0  0  0  0  0  0  0  0  0  0  0
    3.6373    2.8000    0.0000 C   0  0  0  0  0  0  0  0  0  0  0  0
    6.0622    0.0000    0.0000 N   0  0  0  0  0  0  0  0  0  0  0  0
    7.2746    0.7000    0.0000 C   0  0  0  0  0  0  0  0  0  0  0  0
    7.2746    2.1000    0.0000 N   0  0  0  0  0  0  0  0  0  0  0  0
    6.0622    2.8000    0.0000 C   0  0  0  0  0  0  0  0  0  0  0  0
    6.0622    4.2000    0.0000 N   0  0  0  0  0  0  0  0  0  0  0  0
    1.2124    2.8000    0.0000 O   0  0  0  0  0  0  0  0  0  0  0  0
    0.0000    2.1000    0.0000 C   0  0  0  0  0  0  0  0  0  0  0  0
    1.2124    0.0000    0.0000 O   0  0  0  0  0  0  0  0  0  0  0  0
    0.0000    0.7000    0.0000 C   0  0  0  0  0  0  0  0  0  0  0  0
    7.2746    4.9000    0.0000 C   0  0  0  0  0  0  0  0  0  0  0  0
    8.4870    4.2000    0.0000 C   0  0  0  0  0  0  0  0  0  0  0  0
    9.6995    4.9000    0.0000 C   0  0  0  0  0  0  0  0  0  0  0  0
    9.6995    6.3000    0.0000 C   0  0  0  0  0  0  0  0  0  0  0  0
    8.4870    7.0000    0.0000 C   0  0  0  0  0  0  0  0  0  0  0  0
    7.2746    6.3000    0.0000 C   0  0  0  0  0  0  0  0  0  0  0  0
    6.0622    7.0000    0.0000 C   0  0  0  0  0  0  0  0  0  0  0  0
   10.9119    7.0000    0.0000 O   0  0  0  0  0  0  0  0  0  0  0  0
   12.1244    6.3000    0.0000 C   0  0  0  0  0  0  0  0  0  0  0  0
   12.1244    4.9000    0.0000 C   0  0  0  0  0  0  0  0  0  0  0  0
   13.3368    4.2000    0.0000 C   0  0  0  0  0  0  0  0  0  0  0  0
   14.5492    4.9000    0.0000 C   0  0  0  0  0  0  0  0  0  0  0  0
   14.5492    6.3000    0.0000 C   0  0  0  0  0  0  0  0  0  0  0  0
   13.3368    7.0000    0.0000 C   0  0  0  0  0  0  0  0  0  0  0  0
   10.3740    0.5436    0.0000 Cl  0  0  0  0  0  0  0  0  0  0  0  0
  1  2  2  0  0  0  0
  2  3  1  0  0  0  0
  3  4  2  0  0  0  0
  4  5  1  0  0  0  0
  5  6  2  0  0  0  0
  6  1  1  0  0  0  0
  4  7  1  0  0  0  0
  7  8  2  0  0  0  0
  8  9  1  0  0  0  0
  9 10  2  0  0  0  0
 10  5  1  0  0  0  0
 10 11  1  0  0  0  0
  1 12  1  0  0  0  0
 12 13  1  0  0  0  0
  2 14  1  0  0  0  0
 14 15  1  0  0  0  0
 11 16  1  0  0  0  0
 16 17  2  0  0  0  0
 17 18  1  0  0  0  0
 18 19  2  0  0  0  0
 19 20  1  0  0  0  0
 20 21  2  0  0  0  0
 21 16  1  0  0  0  0
 21 22  1  0  0  0  0
 19 23  1  0  0  0  0
 23 24  1  0  0  0  0
 24 25  2  0  0  0  0
 25 26  1  0  0  0  0
 26 27  2  0  0  0  0
 27 28  1  0  0  0  0
 28 29  2  0  0  0  0
 29 24  1  0  0  0  0
M  END
>  <Mol_ID> (593)
3248

>  <Formula> (593)
C23H22ClN3O3

>  <MolWeight> (593)
423.89208

>  <Cat> (593)
S8355

>  <Name> (593)
APS-2-79 HCl

>  <Synonyms> (593)
N/A

>  <Target> (593)
MEK

>  <Form> (593)
hydrochloride

>  <CAS> (593)
2002381-31-7

>  <URL> (593)
http://www.selleckchem.com/products/aps-2-79.html

$$$$
BMS-911543.cdx
csChFnd80/05071909292D

 32 37  0  0  0  0  0  0  0  0999 V2000
    6.8547    3.4495    0.0000 C   0  0  0  0  0  0  0  0  0  0  0  0
    6.8547    2.0495    0.0000 C   0  0  0  0  0  0  0  0  0  0  0  0
    8.0671    1.3495    0.0000 N   0  0  0  0  0  0  0  0  0  0  0  0
    9.2795    2.0495    0.0000 C   0  0  0  0  0  0  0  0  0  0  0  0
    9.2795    3.4495    0.0000 C   0  0  0  0  0  0  0  0  0  0  0  0
    8.0671    4.1495    0.0000 C   0  0  0  0  0  0  0  0  0  0  0  0
    5.5232    3.8822    0.0000 C   0  0  0  0  0  0  0  0  0  0  0  0
    4.7003    2.7495    0.0000 C   0  0  0  0  0  0  0  0  0  0  0  0
    5.5232    1.6169    0.0000 N   0  0  0  0  0  0  0  0  0  0  0  0
    5.0921    0.2901    0.0000 C   0  0  0  0  0  0  0  0  0  0  0  0
    3.7274    0.0000    0.0000 C   0  0  0  0  0  0  0  0  0  0  0  0
    3.3051    2.7495    0.0000 C   0  0  0  0  0  0  0  0  0  0  0  0
    2.6076    3.9578    0.0000 N   0  0  0  0  0  0  0  0  0  0  0  0
    2.6076    1.5413    0.0000 O   0  0  0  0  0  0  0  0  0  0  0  0
    1.2124    3.9578    0.0000 C   0  0  0  0  0  0  0  0  0  0  0  0
    3.3051    5.1660    0.0000 C   0  0  0  0  0  0  0  0  0  0  0  0
    4.5176    5.8660    0.0000 C   0  0  0  0  0  0  0  0  0  0  0  0
    3.3051    6.5660    0.0000 C   0  0  0  0  0  0  0  0  0  0  0  0
    0.0000    4.6578    0.0000 C   0  0  0  0  0  0  0  0  0  0  0  0
    0.0000    3.2578    0.0000 C   0  0  0  0  0  0  0  0  0  0  0  0
   10.3199    4.3863    0.0000 N   0  0  0  0  0  0  0  0  0  0  0  0
    9.7505    5.6653    0.0000 C   0  0  0  0  0  0  0  0  0  0  0  0
    8.3582    5.5190    0.0000 N   0  0  0  0  0  0  0  0  0  0  0  0
    7.4246    6.5557    0.0000 C   0  0  0  0  0  0  0  0  0  0  0  0
   10.4878    1.3520    0.0000 N   0  0  0  0  0  0  0  0  0  0  0  0
   11.6960    2.0495    0.0000 C   0  0  0  0  0  0  0  0  0  0  0  0
   12.9750    1.4801    0.0000 C   0  0  0  0  0  0  0  0  0  0  0  0
   13.9117    2.5205    0.0000 C   0  0  0  0  0  0  0  0  0  0  0  0
   13.2117    3.7330    0.0000 N   0  0  0  0  0  0  0  0  0  0  0  0
   11.8423    3.4419    0.0000 N   0  0  0  0  0  0  0  0  0  0  0  0
   15.2992    2.3747    0.0000 C   0  0  0  0  0  0  0  0  0  0  0  0
   13.7792    5.0075    0.0000 C   0  0  0  0  0  0  0  0  0  0  0  0
  1  2  2  0  0  0  0
  2  3  1  0  0  0  0
  3  4  2  0  0  0  0
  4  5  1  0  0  0  0
  5  6  2  0  0  0  0
  6  1  1  0  0  0  0
  1  7  1  0  0  0  0
  7  8  2  0  0  0  0
  8  9  1  0  0  0  0
  9  2  1  0  0  0  0
  9 10  1  0  0  0  0
 10 11  1  0  0  0  0
  8 12  1  0  0  0  0
 12 13  1  0  0  0  0
 12 14  2  0  0  0  0
 13 15  1  0  0  0  0
 13 16  1  0  0  0  0
 16 17  1  0  0  0  0
 17 18  1  0  0  0  0
 18 16  1  0  0  0  0
 15 19  1  0  0  0  0
 19 20  1  0  0  0  0
 20 15  1  0  0  0  0
  5 21  1  0  0  0  0
 21 22  2  0  0  0  0
 22 23  1  0  0  0  0
 23  6  1  0  0  0  0
 23 24  1  0  0  0  0
  4 25  1  0  0  0  0
 25 26  1  0  0  0  0
 26 27  1  0  0  0  0
 27 28  2  0  0  0  0
 28 29  1  0  0  0  0
 29 30  1  0  0  0  0
 30 26  2  0  0  0  0
 28 31  1  0  0  0  0
 29 32  1  0  0  0  0
M  END
>  <Mol_ID> (594)
3252

>  <Formula> (594)
C23H28N8O

>  <MolWeight> (594)
432.52142

>  <Cat> (594)
S7144

>  <Name> (594)
BMS-911543

>  <Synonyms> (594)
N/A

>  <Target> (594)
JAK

>  <Form> (594)
Free Base

>  <CAS> (594)
1271022-90-2

>  <URL> (594)
http://www.selleckchem.com/products/bms-911543.html

$$$$
Deguelin.cdx
csChFnd80/05071909292D

 31 35  0  0  0  0  0  0  0  0999 V2000
    2.4249    6.3000    0.0000 C   0  0  0  0  0  0  0  0  0  0  0  0
    2.4249    4.9000    0.0000 C   0  0  0  0  0  0  0  0  0  0  0  0
    3.6373    4.2000    0.0000 C   0  0  0  0  0  0  0  0  0  0  0  0
    4.8497    4.9000    0.0000 C   0  0  0  0  0  0  0  0  0  0  0  0
    4.8497    6.3000    0.0000 C   0  0  0  0  0  0  0  0  0  0  0  0
    3.6373    7.0000    0.0000 C   0  0  0  0  0  0  0  0  0  0  0  0
    6.0622    4.2000    0.0000 C   0  0  0  0  0  0  0  0  0  0  0  0
    7.2746    4.9000    0.0000 C   0  0  2  0  0  0  0  0  0  0  0  0
    7.2746    6.3000    0.0000 C   0  0  2  0  0  0  0  0  0  0  0  0
    6.0622    7.0000    0.0000 O   0  0  0  0  0  0  0  0  0  0  0  0
    8.4870    4.2000    0.0000 C   0  0  0  0  0  0  0  0  0  0  0  0
    9.6995    4.9000    0.0000 C   0  0  0  0  0  0  0  0  0  0  0  0
    9.6995    6.3000    0.0000 O   0  0  0  0  0  0  0  0  0  0  0  0
    8.4870    7.0000    0.0000 C   0  0  0  0  0  0  0  0  0  0  0  0
    8.4870    2.8000    0.0000 C   0  0  0  0  0  0  0  0  0  0  0  0
    9.6995    2.1000    0.0000 C   0  0  0  0  0  0  0  0  0  0  0  0
   10.9119    2.8000    0.0000 C   0  0  0  0  0  0  0  0  0  0  0  0
   10.9119    4.2000    0.0000 C   0  0  0  0  0  0  0  0  0  0  0  0
    3.6373    8.4000    0.0000 C   0  0  0  0  0  0  0  0  0  0  0  0
    2.4249    9.1000    0.0000 C   0  0  0  0  0  0  0  0  0  0  0  0
    1.2124    8.4000    0.0000 C   0  0  0  0  0  0  0  0  0  0  0  0
    1.2124    7.0000    0.0000 O   0  0  0  0  0  0  0  0  0  0  0  0
    0.0000    9.1000    0.0000 C   0  0  0  0  0  0  0  0  0  0  0  0
    0.0000    7.7000    0.0000 C   0  0  0  0  0  0  0  0  0  0  0  0
    6.0622    2.8000    0.0000 O   0  0  0  0  0  0  0  0  0  0  0  0
   12.1244    2.1000    0.0000 O   0  0  0  0  0  0  0  0  0  0  0  0
    9.6995    0.7000    0.0000 O   0  0  0  0  0  0  0  0  0  0  0  0
   10.9119    0.0000    0.0000 C   0  0  0  0  0  0  0  0  0  0  0  0
   12.1244    0.7000    0.0000 C   0  0  0  0  0  0  0  0  0  0  0  0
    7.2746    7.7000    0.0000 H   0  0  0  0  0  0  0  0  0  0  0  0
    7.2746    3.5000    0.0000 H   0  0  0  0  0  0  0  0  0  0  0  0
  1  2  2  0  0  0  0
  2  3  1  0  0  0  0
  3  4  2  0  0  0  0
  4  5  1  0  0  0  0
  5  6  2  0  0  0  0
  6  1  1  0  0  0  0
  4  7  1  0  0  0  0
  7  8  1  0  0  0  0
  8  9  1  0  0  0  0
  9 10  1  0  0  0  0
 10  5  1  0  0  0  0
  8 11  1  0  0  0  0
 11 12  2  0  0  0  0
 12 13  1  0  0  0  0
 13 14  1  0  0  0  0
 14  9  1  0  0  0  0
 11 15  1  0  0  0  0
 15 16  2  0  0  0  0
 16 17  1  0  0  0  0
 17 18  2  0  0  0  0
 18 12  1  0  0  0  0
  6 19  1  0  0  0  0
 19 20  2  0  0  0  0
 20 21  1  0  0  0  0
 21 22  1  0  0  0  0
 22  1  1  0  0  0  0
 21 23  1  0  0  0  0
 21 24  1  0  0  0  0
  7 25  2  0  0  0  0
 17 26  1  0  0  0  0
 16 27  1  0  0  0  0
 27 28  1  0  0  0  0
 26 29  1  0  0  0  0
  9 30  1  1  0  0  0
  8 31  1  1  0  0  0
M  END
>  <Mol_ID> (595)
3254

>  <Formula> (595)
C23H22O6

>  <MolWeight> (595)
394.41718

>  <Cat> (595)
S8132

>  <Name> (595)
Deguelin

>  <Synonyms> (595)
(-)-Deguelin, (-)-cis-Deguelin

>  <Target> (595)
Akt

>  <Form> (595)
Free Base

>  <CAS> (595)
522-17-8

>  <URL> (595)
http://www.selleckchem.com/products/deguelin.html

$$$$
BAW2881 (NVP-BAW2881).cdx
csChFnd80/05071909292D

 31 34  0  0  0  0  0  0  0  0999 V2000
    0.0000    5.6000    0.0000 C   0  0  0  0  0  0  0  0  0  0  0  0
    0.0000    4.2000    0.0000 N   0  0  0  0  0  0  0  0  0  0  0  0
    1.2124    3.5000    0.0000 C   0  0  0  0  0  0  0  0  0  0  0  0
    2.4249    4.2000    0.0000 N   0  0  0  0  0  0  0  0  0  0  0  0
    2.4249    5.6000    0.0000 C   0  0  0  0  0  0  0  0  0  0  0  0
    1.2124    6.3000    0.0000 C   0  0  0  0  0  0  0  0  0  0  0  0
    1.2124    2.1000    0.0000 N   0  0  0  0  0  0  0  0  0  0  0  0
    3.6373    6.3000    0.0000 O   0  0  0  0  0  0  0  0  0  0  0  0
    4.8497    5.6000    0.0000 C   0  0  0  0  0  0  0  0  0  0  0  0
    4.8497    4.2000    0.0000 C   0  0  0  0  0  0  0  0  0  0  0  0
    6.0622    3.5000    0.0000 C   0  0  0  0  0  0  0  0  0  0  0  0
    7.2746    4.2000    0.0000 C   0  0  0  0  0  0  0  0  0  0  0  0
    7.2746    5.6000    0.0000 C   0  0  0  0  0  0  0  0  0  0  0  0
    6.0622    6.3000    0.0000 C   0  0  0  0  0  0  0  0  0  0  0  0
    8.4871    3.5000    0.0000 C   0  0  0  0  0  0  0  0  0  0  0  0
    9.6995    4.2000    0.0000 C   0  0  0  0  0  0  0  0  0  0  0  0
    9.6995    5.6000    0.0000 C   0  0  0  0  0  0  0  0  0  0  0  0
    8.4871    6.3000    0.0000 C   0  0  0  0  0  0  0  0  0  0  0  0
    8.4871    2.1000    0.0000 C   0  0  0  0  0  0  0  0  0  0  0  0
    9.6995    1.4000    0.0000 N   0  0  0  0  0  0  0  0  0  0  0  0
    7.2746    1.4000    0.0000 O   0  0  0  0  0  0  0  0  0  0  0  0
   10.9119    2.1000    0.0000 C   0  0  0  0  0  0  0  0  0  0  0  0
   12.1244    1.4000    0.0000 C   0  0  0  0  0  0  0  0  0  0  0  0
   13.3368    2.1000    0.0000 C   0  0  0  0  0  0  0  0  0  0  0  0
   13.3368    3.5000    0.0000 C   0  0  0  0  0  0  0  0  0  0  0  0
   12.1244    4.2000    0.0000 C   0  0  0  0  0  0  0  0  0  0  0  0
   10.9119    3.5000    0.0000 C   0  0  0  0  0  0  0  0  0  0  0  0
   14.5492    1.4000    0.0000 C   0  0  0  0  0  0  0  0  0  0  0  0
   15.7617    2.1000    0.0000 F   0  0  0  0  0  0  0  0  0  0  0  0
   14.5492    0.0000    0.0000 F   0  0  0  0  0  0  0  0  0  0  0  0
   15.7617    0.7000    0.0000 F   0  0  0  0  0  0  0  0  0  0  0  0
  1  2  2  0  0  0  0
  2  3  1  0  0  0  0
  3  4  2  0  0  0  0
  4  5  1  0  0  0  0
  5  6  2  0  0  0  0
  6  1  1  0  0  0  0
  3  7  1  0  0  0  0
  5  8  1  0  0  0  0
  8  9  1  0  0  0  0
  9 10  2  0  0  0  0
 10 11  1  0  0  0  0
 11 12  2  0  0  0  0
 12 13  1  0  0  0  0
 13 14  2  0  0  0  0
 14  9  1  0  0  0  0
 12 15  1  0  0  0  0
 15 16  2  0  0  0  0
 16 17  1  0  0  0  0
 17 18  2  0  0  0  0
 18 13  1  0  0  0  0
 15 19  1  0  0  0  0
 19 20  1  0  0  0  0
 19 21  2  0  0  0  0
 20 22  1  0  0  0  0
 22 23  2  0  0  0  0
 23 24  1  0  0  0  0
 24 25  2  0  0  0  0
 25 26  1  0  0  0  0
 26 27  2  0  0  0  0
 27 22  1  0  0  0  0
 24 28  1  0  0  0  0
 28 29  1  0  0  0  0
 28 30  1  0  0  0  0
 28 31  1  0  0  0  0
M  END
>  <Mol_ID> (596)
3262

>  <Formula> (596)
C22H15F3N4O2

>  <MolWeight> (596)
424.3753096

>  <Cat> (596)
S8189

>  <Name> (596)
BAW2881 (NVP-BAW2881)

>  <Synonyms> (596)
N/A

>  <Target> (596)
VEGFR

>  <Form> (596)
Free Base

>  <CAS> (596)
861875-60-7

>  <URL> (596)
http://www.selleckchem.com/products/baw2881-nvp-baw2881.html

$$$$
Pamapimod.cdx
csChFnd80/05071909292D

 29 31  0  0  0  0  0  0  0  0999 V2000
    3.6373    6.3000    0.0000 N   0  0  0  0  0  0  0  0  0  0  0  0
    3.6373    4.9000    0.0000 C   0  0  0  0  0  0  0  0  0  0  0  0
    4.8497    4.2000    0.0000 N   0  0  0  0  0  0  0  0  0  0  0  0
    6.0622    4.9000    0.0000 C   0  0  0  0  0  0  0  0  0  0  0  0
    6.0622    6.3000    0.0000 C   0  0  0  0  0  0  0  0  0  0  0  0
    4.8497    7.0000    0.0000 C   0  0  0  0  0  0  0  0  0  0  0  0
    7.2746    4.2000    0.0000 N   0  0  0  0  0  0  0  0  0  0  0  0
    8.4871    4.9000    0.0000 C   0  0  0  0  0  0  0  0  0  0  0  0
    8.4871    6.3000    0.0000 C   0  0  0  0  0  0  0  0  0  0  0  0
    7.2746    7.0000    0.0000 C   0  0  0  0  0  0  0  0  0  0  0  0
    9.6995    7.0000    0.0000 O   0  0  0  0  0  0  0  0  0  0  0  0
    9.6995    4.2000    0.0000 O   0  0  0  0  0  0  0  0  0  0  0  0
    7.2746    2.8000    0.0000 C   0  0  0  0  0  0  0  0  0  0  0  0
    2.4249    4.2000    0.0000 N   0  0  0  0  0  0  0  0  0  0  0  0
    2.4249    2.8000    0.0000 C   0  0  0  0  0  0  0  0  0  0  0  0
    3.6373    2.1000    0.0000 C   0  0  0  0  0  0  0  0  0  0  0  0
    1.2124    2.1000    0.0000 C   0  0  0  0  0  0  0  0  0  0  0  0
    1.2124    0.7000    0.0000 C   0  0  0  0  0  0  0  0  0  0  0  0
    0.0000    0.0000    0.0000 O   0  0  0  0  0  0  0  0  0  0  0  0
    3.6373    0.7000    0.0000 C   0  0  0  0  0  0  0  0  0  0  0  0
    4.8497    0.0000    0.0000 O   0  0  0  0  0  0  0  0  0  0  0  0
    9.6995    8.4000    0.0000 C   0  0  0  0  0  0  0  0  0  0  0  0
   10.9119    9.1000    0.0000 C   0  0  0  0  0  0  0  0  0  0  0  0
   10.9119   10.5000    0.0000 C   0  0  0  0  0  0  0  0  0  0  0  0
    9.6995   11.2000    0.0000 C   0  0  0  0  0  0  0  0  0  0  0  0
    8.4871   10.5000    0.0000 C   0  0  0  0  0  0  0  0  0  0  0  0
    8.4871    9.1000    0.0000 C   0  0  0  0  0  0  0  0  0  0  0  0
    9.6995   12.6000    0.0000 F   0  0  0  0  0  0  0  0  0  0  0  0
   12.1244    8.4000    0.0000 F   0  0  0  0  0  0  0  0  0  0  0  0
  1  2  2  0  0  0  0
  2  3  1  0  0  0  0
  3  4  2  0  0  0  0
  4  5  1  0  0  0  0
  5  6  2  0  0  0  0
  6  1  1  0  0  0  0
  4  7  1  0  0  0  0
  7  8  1  0  0  0  0
  8  9  1  0  0  0  0
  9 10  2  0  0  0  0
 10  5  1  0  0  0  0
  9 11  1  0  0  0  0
  8 12  2  0  0  0  0
  7 13  1  0  0  0  0
  2 14  1  0  0  0  0
 14 15  1  0  0  0  0
 15 16  1  0  0  0  0
 15 17  1  0  0  0  0
 17 18  1  0  0  0  0
 18 19  1  0  0  0  0
 16 20  1  0  0  0  0
 20 21  1  0  0  0  0
 11 22  1  0  0  0  0
 22 23  2  0  0  0  0
 23 24  1  0  0  0  0
 24 25  2  0  0  0  0
 25 26  1  0  0  0  0
 26 27  2  0  0  0  0
 27 22  1  0  0  0  0
 25 28  1  0  0  0  0
 23 29  1  0  0  0  0
M  END
>  <Mol_ID> (597)
3266

>  <Formula> (597)
C19H20F2N4O4

>  <MolWeight> (597)
406.3833064

>  <Cat> (597)
S8125

>  <Name> (597)
Pamapimod (R-1503, Ro4402257)

>  <Synonyms> (597)
N/A

>  <Target> (597)
p38 MAPK

>  <Form> (597)
Free Base

>  <CAS> (597)
449811-01-2

>  <URL> (597)
http://www.selleckchem.com/products/pamapimod-r-1503-ro4402257.html

$$$$
BFH772.cdx
csChFnd80/05071909292D

 32 35  0  0  0  0  0  0  0  0999 V2000
    0.0000    5.6000    0.0000 C   0  0  0  0  0  0  0  0  0  0  0  0
    0.0000    4.2000    0.0000 N   0  0  0  0  0  0  0  0  0  0  0  0
    1.2124    3.5000    0.0000 C   0  0  0  0  0  0  0  0  0  0  0  0
    2.4249    4.2000    0.0000 C   0  0  0  0  0  0  0  0  0  0  0  0
    2.4249    5.6000    0.0000 C   0  0  0  0  0  0  0  0  0  0  0  0
    1.2124    6.3000    0.0000 N   0  0  0  0  0  0  0  0  0  0  0  0
    1.2124    2.1000    0.0000 C   0  0  0  0  0  0  0  0  0  0  0  0
    0.0000    1.4000    0.0000 O   0  0  0  0  0  0  0  0  0  0  0  0
    3.6373    6.3000    0.0000 O   0  0  0  0  0  0  0  0  0  0  0  0
    4.8497    5.6000    0.0000 C   0  0  0  0  0  0  0  0  0  0  0  0
    4.8497    4.2000    0.0000 C   0  0  0  0  0  0  0  0  0  0  0  0
    6.0622    3.5000    0.0000 C   0  0  0  0  0  0  0  0  0  0  0  0
    7.2746    4.2000    0.0000 C   0  0  0  0  0  0  0  0  0  0  0  0
    7.2746    5.6000    0.0000 C   0  0  0  0  0  0  0  0  0  0  0  0
    6.0622    6.3000    0.0000 C   0  0  0  0  0  0  0  0  0  0  0  0
    8.4870    3.5000    0.0000 C   0  0  0  0  0  0  0  0  0  0  0  0
    9.6995    4.2000    0.0000 C   0  0  0  0  0  0  0  0  0  0  0  0
    9.6995    5.6000    0.0000 C   0  0  0  0  0  0  0  0  0  0  0  0
    8.4870    6.3000    0.0000 C   0  0  0  0  0  0  0  0  0  0  0  0
    8.4870    2.1000    0.0000 C   0  0  0  0  0  0  0  0  0  0  0  0
    9.6995    1.4000    0.0000 N   0  0  0  0  0  0  0  0  0  0  0  0
    7.2746    1.4000    0.0000 O   0  0  0  0  0  0  0  0  0  0  0  0
   10.9119    2.1000    0.0000 C   0  0  0  0  0  0  0  0  0  0  0  0
   12.1244    1.4000    0.0000 C   0  0  0  0  0  0  0  0  0  0  0  0
   13.3368    2.1000    0.0000 C   0  0  0  0  0  0  0  0  0  0  0  0
   13.3368    3.5000    0.0000 C   0  0  0  0  0  0  0  0  0  0  0  0
   12.1244    4.2000    0.0000 C   0  0  0  0  0  0  0  0  0  0  0  0
   10.9119    3.5000    0.0000 C   0  0  0  0  0  0  0  0  0  0  0  0
   14.5492    1.4000    0.0000 C   0  0  0  0  0  0  0  0  0  0  0  0
   15.7617    2.1000    0.0000 F   0  0  0  0  0  0  0  0  0  0  0  0
   14.5492    0.0000    0.0000 F   0  0  0  0  0  0  0  0  0  0  0  0
   15.7617    0.7000    0.0000 F   0  0  0  0  0  0  0  0  0  0  0  0
  1  2  2  0  0  0  0
  2  3  1  0  0  0  0
  3  4  2  0  0  0  0
  4  5  1  0  0  0  0
  5  6  2  0  0  0  0
  6  1  1  0  0  0  0
  3  7  1  0  0  0  0
  7  8  1  0  0  0  0
  5  9  1  0  0  0  0
  9 10  1  0  0  0  0
 10 11  2  0  0  0  0
 11 12  1  0  0  0  0
 12 13  2  0  0  0  0
 13 14  1  0  0  0  0
 14 15  2  0  0  0  0
 15 10  1  0  0  0  0
 13 16  1  0  0  0  0
 16 17  2  0  0  0  0
 17 18  1  0  0  0  0
 18 19  2  0  0  0  0
 19 14  1  0  0  0  0
 16 20  1  0  0  0  0
 20 21  1  0  0  0  0
 20 22  2  0  0  0  0
 21 23  1  0  0  0  0
 23 24  2  0  0  0  0
 24 25  1  0  0  0  0
 25 26  2  0  0  0  0
 26 27  1  0  0  0  0
 27 28  2  0  0  0  0
 28 23  1  0  0  0  0
 25 29  1  0  0  0  0
 29 30  1  0  0  0  0
 29 31  1  0  0  0  0
 29 32  1  0  0  0  0
M  END
>  <Mol_ID> (598)
3274

>  <Formula> (598)
C23H16F3N3O3

>  <MolWeight> (598)
439.3866496

>  <Cat> (598)
S8188

>  <Name> (598)
BFH772

>  <Synonyms> (598)
BFH 772, BFH-772

>  <Target> (598)
VEGFR

>  <Form> (598)
Free Base

>  <CAS> (598)
890128-81-1

>  <URL> (598)
http://www.selleckchem.com/products/bfh772.html

$$$$
GSK269962.cdx
csChFnd80/05071909292D

 43 47  0  0  0  0  0  0  0  0999 V2000
    1.2124   10.8293    0.0000 C   0  0  0  0  0  0  0  0  0  0  0  0
    1.2124    9.4293    0.0000 C   0  0  0  0  0  0  0  0  0  0  0  0
    2.4249    8.7293    0.0000 C   0  0  0  0  0  0  0  0  0  0  0  0
    3.6373    9.4293    0.0000 C   0  0  0  0  0  0  0  0  0  0  0  0
    3.6373   10.8293    0.0000 C   0  0  0  0  0  0  0  0  0  0  0  0
    2.4249   11.5293    0.0000 C   0  0  0  0  0  0  0  0  0  0  0  0
    2.4249   12.9293    0.0000 O   0  0  0  0  0  0  0  0  0  0  0  0
    2.4249    7.3293    0.0000 C   0  0  0  0  0  0  0  0  0  0  0  0
    3.6373    6.6293    0.0000 O   0  0  0  0  0  0  0  0  0  0  0  0
    1.2124    6.6293    0.0000 N   0  0  0  0  0  0  0  0  0  0  0  0
    3.6373   13.6293    0.0000 C   0  0  0  0  0  0  0  0  0  0  0  0
    3.6373   15.0293    0.0000 C   0  0  0  0  0  0  0  0  0  0  0  0
    4.8497   15.7293    0.0000 N   0  0  0  0  0  0  0  0  0  0  0  0
    6.0622   15.0293    0.0000 C   0  0  0  0  0  0  0  0  0  0  0  0
    7.2746   15.7293    0.0000 C   0  0  0  0  0  0  0  0  0  0  0  0
    7.2746   17.1293    0.0000 O   0  0  0  0  0  0  0  0  0  0  0  0
    6.0622   17.8293    0.0000 C   0  0  0  0  0  0  0  0  0  0  0  0
    4.8497   17.1293    0.0000 C   0  0  0  0  0  0  0  0  0  0  0  0
    1.2124    5.2293    0.0000 C   0  0  0  0  0  0  0  0  0  0  0  0
    0.0000    4.5293    0.0000 C   0  0  0  0  0  0  0  0  0  0  0  0
    0.0000    3.1293    0.0000 C   0  0  0  0  0  0  0  0  0  0  0  0
    1.2124    2.4293    0.0000 C   0  0  0  0  0  0  0  0  0  0  0  0
    2.4249    3.1293    0.0000 C   0  0  0  0  0  0  0  0  0  0  0  0
    2.4249    4.5293    0.0000 C   0  0  0  0  0  0  0  0  0  0  0  0
    3.6373    2.4293    0.0000 O   0  0  0  0  0  0  0  0  0  0  0  0
    4.8497    3.1293    0.0000 C   0  0  0  0  0  0  0  0  0  0  0  0
    6.0622    2.4293    0.0000 C   0  0  0  0  0  0  0  0  0  0  0  0
    7.2746    3.1293    0.0000 C   0  0  0  0  0  0  0  0  0  0  0  0
    7.2746    4.5293    0.0000 C   0  0  0  0  0  0  0  0  0  0  0  0
    6.0622    5.2293    0.0000 C   0  0  0  0  0  0  0  0  0  0  0  0
    4.8497    4.5293    0.0000 N   0  0  0  0  0  0  0  0  0  0  0  0
    8.6061    2.6967    0.0000 N   0  0  0  0  0  0  0  0  0  0  0  0
    9.4290    3.8293    0.0000 C   0  0  0  0  0  0  0  0  0  0  0  0
    8.6061    4.9620    0.0000 N   0  0  0  0  0  0  0  0  0  0  0  0
    9.0387    1.3652    0.0000 C   0  0  0  0  0  0  0  0  0  0  0  0
    8.1019    0.3248    0.0000 C   0  0  0  0  0  0  0  0  0  0  0  0
   10.8290    3.8293    0.0000 C   0  0  0  0  0  0  0  0  0  0  0  0
   11.6519    2.6967    0.0000 N   0  0  0  0  0  0  0  0  0  0  0  0
   12.9834    3.1293    0.0000 O   0  0  0  0  0  0  0  0  0  0  0  0
   12.9834    4.5293    0.0000 N   0  0  0  0  0  0  0  0  0  0  0  0
   11.6519    4.9620    0.0000 C   0  0  0  0  0  0  0  0  0  0  0  0
   11.2193    6.2934    0.0000 N   0  0  0  0  0  0  0  0  0  0  0  0
    4.4800    0.0000    0.0000 Cl  0  0  0  0  0  0  0  0  0  0  0  0
  1  2  2  0  0  0  0
  2  3  1  0  0  0  0
  3  4  2  0  0  0  0
  4  5  1  0  0  0  0
  5  6  2  0  0  0  0
  6  1  1  0  0  0  0
  6  7  1  0  0  0  0
  3  8  1  0  0  0  0
  8  9  2  0  0  0  0
  8 10  1  0  0  0  0
  7 11  1  0  0  0  0
 11 12  1  0  0  0  0
 12 13  1  0  0  0  0
 13 14  1  0  0  0  0
 14 15  1  0  0  0  0
 15 16  1  0  0  0  0
 16 17  1  0  0  0  0
 17 18  1  0  0  0  0
 18 13  1  0  0  0  0
 10 19  1  0  0  0  0
 19 20  2  0  0  0  0
 20 21  1  0  0  0  0
 21 22  2  0  0  0  0
 22 23  1  0  0  0  0
 23 24  2  0  0  0  0
 24 19  1  0  0  0  0
 23 25  1  0  0  0  0
 25 26  1  0  0  0  0
 26 27  2  0  0  0  0
 27 28  1  0  0  0  0
 28 29  2  0  0  0  0
 29 30  1  0  0  0  0
 30 31  2  0  0  0  0
 31 26  1  0  0  0  0
 28 32  1  0  0  0  0
 32 33  1  0  0  0  0
 33 34  2  0  0  0  0
 34 29  1  0  0  0  0
 32 35  1  0  0  0  0
 35 36  1  0  0  0  0
 33 37  1  0  0  0  0
 37 38  2  0  0  0  0
 38 39  1  0  0  0  0
 39 40  1  0  0  0  0
 40 41  2  0  0  0  0
 41 37  1  0  0  0  0
 41 42  1  0  0  0  0
M  END
>  <Mol_ID> (599)
3279

>  <Formula> (599)
C29H31ClN8O5

>  <MolWeight> (599)
607.06004

>  <Cat> (599)
S7687

>  <Name> (599)
GSK269962 HCl

>  <Synonyms> (599)
GSK 269962, GSK-269962, GSK269962A, GSK 269962A, GSK-269962A, GSK269962B

>  <Target> (599)
ROCK

>  <Form> (599)
hydrochloride

>  <CAS> (599)
850664-21-0(free base)

>  <URL> (599)
http://www.selleckchem.com/products/gsk269962.html

$$$$
NT157.cdx
csChFnd80/05071909292D

 24 25  0  0  0  0  0  0  0  0999 V2000
    1.2124    3.5000    0.0000 C   0  0  0  0  0  0  0  0  0  0  0  0
    1.2124    2.1000    0.0000 C   0  0  0  0  0  0  0  0  0  0  0  0
    2.4249    1.4000    0.0000 C   0  0  0  0  0  0  0  0  0  0  0  0
    3.6373    2.1000    0.0000 C   0  0  0  0  0  0  0  0  0  0  0  0
    3.6373    3.5000    0.0000 C   0  0  0  0  0  0  0  0  0  0  0  0
    2.4249    4.2000    0.0000 C   0  0  0  0  0  0  0  0  0  0  0  0
    0.0000    4.2000    0.0000 O   0  0  0  0  0  0  0  0  0  0  0  0
    0.0000    1.4000    0.0000 O   0  0  0  0  0  0  0  0  0  0  0  0
    4.8497    4.2000    0.0000 C   0  0  0  0  0  0  0  0  0  0  0  0
    6.0622    3.5000    0.0000 C   0  0  0  0  0  0  0  0  0  0  0  0
    7.2746    4.2000    0.0000 C   0  0  0  0  0  0  0  0  0  0  0  0
    8.4870    3.5000    0.0000 N   0  0  0  0  0  0  0  0  0  0  0  0
    7.2746    5.6000    0.0000 S   0  0  0  0  0  0  0  0  0  0  0  0
    9.6995    4.2000    0.0000 C   0  0  0  0  0  0  0  0  0  0  0  0
   10.9119    3.5000    0.0000 C   0  0  0  0  0  0  0  0  0  0  0  0
   10.9119    2.1000    0.0000 C   0  0  0  0  0  0  0  0  0  0  0  0
   12.1244    1.4000    0.0000 C   0  0  0  0  0  0  0  0  0  0  0  0
   13.3368    2.1000    0.0000 C   0  0  0  0  0  0  0  0  0  0  0  0
   13.3368    3.5000    0.0000 C   0  0  0  0  0  0  0  0  0  0  0  0
   12.1244    4.2000    0.0000 C   0  0  0  0  0  0  0  0  0  0  0  0
   14.5492    4.2000    0.0000 O   0  0  0  0  0  0  0  0  0  0  0  0
   14.5492    1.4000    0.0000 O   0  0  0  0  0  0  0  0  0  0  0  0
   12.1244    0.0000    0.0000 O   0  0  0  0  0  0  0  0  0  0  0  0
    2.4249    0.0000    0.0000 Br  0  0  0  0  0  0  0  0  0  0  0  0
  1  2  2  0  0  0  0
  2  3  1  0  0  0  0
  3  4  2  0  0  0  0
  4  5  1  0  0  0  0
  5  6  2  0  0  0  0
  6  1  1  0  0  0  0
  1  7  1  0  0  0  0
  2  8  1  0  0  0  0
  5  9  1  0  0  0  0
  9 10  2  0  0  0  0
 10 11  1  0  0  0  0
 11 12  1  0  0  0  0
 11 13  2  0  0  0  0
 12 14  1  0  0  0  0
 14 15  1  0  0  0  0
 15 16  2  0  0  0  0
 16 17  1  0  0  0  0
 17 18  2  0  0  0  0
 18 19  1  0  0  0  0
 19 20  2  0  0  0  0
 20 15  1  0  0  0  0
 19 21  1  0  0  0  0
 18 22  1  0  0  0  0
 17 23  1  0  0  0  0
  3 24  1  0  0  0  0
M  END
>  <Mol_ID> (600)
3280

>  <Formula> (600)
C16H14BrNO5S

>  <MolWeight> (600)
412.25506

>  <Cat> (600)
S8228

>  <Name> (600)
NT157

>  <Synonyms> (600)
N/A

>  <Target> (600)
IGF-1R

>  <Form> (600)
Free Base

>  <CAS> (600)
1384426-12-3

>  <URL> (600)
http://www.selleckchem.com/products/nt157.html

$$$$
RO9021.cdx
csChFnd80/05071909292D

 26 28  0  0  0  0  0  0  0  0999 V2000
    2.4249    7.7000    0.0000 C   0  0  0  0  0  0  0  0  0  0  0  0
    2.4249    6.3000    0.0000 C   0  0  0  0  0  0  0  0  0  0  0  0
    3.6373    5.6000    0.0000 C   0  0  0  0  0  0  0  0  0  0  0  0
    4.8497    6.3000    0.0000 C   0  0  0  0  0  0  0  0  0  0  0  0
    4.8497    7.7000    0.0000 N   0  0  0  0  0  0  0  0  0  0  0  0
    3.6373    8.4000    0.0000 N   0  0  0  0  0  0  0  0  0  0  0  0
    1.2124    8.4000    0.0000 C   0  0  0  0  0  0  0  0  0  0  0  0
    0.0000    7.7000    0.0000 O   0  0  0  0  0  0  0  0  0  0  0  0
    1.2124    9.8000    0.0000 N   0  0  0  0  0  0  0  0  0  0  0  0
    1.2124    5.6000    0.0000 N   0  0  0  0  0  0  0  0  0  0  0  0
    1.2124    4.2000    0.0000 C   0  0  0  0  0  0  0  0  0  0  0  0
    0.0000    3.5000    0.0000 C   0  0  0  0  0  0  0  0  0  0  0  0
    0.0000    2.1000    0.0000 C   0  0  0  0  0  0  0  0  0  0  0  0
    1.2124    1.4000    0.0000 C   0  0  0  0  0  0  0  0  0  0  0  0
    2.4249    2.1000    0.0000 C   0  0  0  0  0  0  0  0  0  0  0  0
    2.4249    3.5000    0.0000 N   0  0  0  0  0  0  0  0  0  0  0  0
    6.0622    5.6000    0.0000 N   0  0  0  0  0  0  0  0  0  0  0  0
    7.2746    6.3000    0.0000 C   0  0  1  0  0  0  0  0  0  0  0  0
    8.4870    5.6000    0.0000 C   0  0  2  0  0  0  0  0  0  0  0  0
    9.6995    6.3000    0.0000 C   0  0  0  0  0  0  0  0  0  0  0  0
    9.6995    7.7000    0.0000 C   0  0  0  0  0  0  0  0  0  0  0  0
    8.4870    8.4000    0.0000 C   0  0  0  0  0  0  0  0  0  0  0  0
    7.2746    7.7000    0.0000 C   0  0  0  0  0  0  0  0  0  0  0  0
    8.4870    4.2000    0.0000 N   0  0  0  0  0  0  0  0  0  0  0  0
    3.6373    1.4000    0.0000 C   0  0  0  0  0  0  0  0  0  0  0  0
    1.2124    0.0000    0.0000 C   0  0  0  0  0  0  0  0  0  0  0  0
  1  2  2  0  0  0  0
  2  3  1  0  0  0  0
  3  4  2  0  0  0  0
  4  5  1  0  0  0  0
  5  6  2  0  0  0  0
  6  1  1  0  0  0  0
  1  7  1  0  0  0  0
  7  8  2  0  0  0  0
  2 10  1  0  0  0  0
 10 11  1  0  0  0  0
 11 12  2  0  0  0  0
 12 13  1  0  0  0  0
 13 14  2  0  0  0  0
 14 15  1  0  0  0  0
 15 16  2  0  0  0  0
 16 11  1  0  0  0  0
  4 17  1  0  0  0  0
 18 17  1  6  0  0  0
 18 19  1  0  0  0  0
 19 20  1  0  0  0  0
 20 21  1  0  0  0  0
 21 22  1  0  0  0  0
 22 23  1  0  0  0  0
 23 18  1  0  0  0  0
 19 24  1  6  0  0  0
 15 25  1  0  0  0  0
 14 26  1  0  0  0  0
  7  9  1  0  0  0  0
M  END
>  <Mol_ID> (601)
3283

>  <Formula> (601)
C18H25N7O

>  <MolWeight> (601)
355.4374

>  <Cat> (601)
S7286

>  <Name> (601)
RO9021

>  <Synonyms> (601)
N/A

>  <Target> (601)
Syk

>  <Form> (601)
Free Base

>  <CAS> (601)
1446790-62-0

>  <URL> (601)
http://www.selleckchem.com/products/ro9021.html

$$$$
ARRY-380 (ONT-380, Irbinitinib).cdx
csChFnd80/05071909292D

 36 41  0  0  0  0  0  0  0  0999 V2000
    6.0329    2.1000    0.0000 C   0  0  0  0  0  0  0  0  0  0  0  0
    6.0329    0.7000    0.0000 C   0  0  0  0  0  0  0  0  0  0  0  0
    7.2454    0.0000    0.0000 C   0  0  0  0  0  0  0  0  0  0  0  0
    8.4578    0.7000    0.0000 C   0  0  0  0  0  0  0  0  0  0  0  0
    8.4578    2.1000    0.0000 C   0  0  0  0  0  0  0  0  0  0  0  0
    7.2454    2.8000    0.0000 C   0  0  0  0  0  0  0  0  0  0  0  0
    9.6703    0.0000    0.0000 N   0  0  0  0  0  0  0  0  0  0  0  0
   10.8827    0.7000    0.0000 C   0  0  0  0  0  0  0  0  0  0  0  0
   10.8827    2.1000    0.0000 N   0  0  0  0  0  0  0  0  0  0  0  0
    9.6703    2.8000    0.0000 C   0  0  0  0  0  0  0  0  0  0  0  0
    9.6703    4.2000    0.0000 N   0  0  0  0  0  0  0  0  0  0  0  0
   10.8827    4.9000    0.0000 C   0  0  0  0  0  0  0  0  0  0  0  0
   12.0951    4.2000    0.0000 C   0  0  0  0  0  0  0  0  0  0  0  0
   13.3076    4.9000    0.0000 C   0  0  0  0  0  0  0  0  0  0  0  0
   13.3076    6.3000    0.0000 C   0  0  0  0  0  0  0  0  0  0  0  0
   12.0951    7.0000    0.0000 C   0  0  0  0  0  0  0  0  0  0  0  0
   10.8827    6.3000    0.0000 C   0  0  0  0  0  0  0  0  0  0  0  0
   12.0951    8.4000    0.0000 C   0  0  0  0  0  0  0  0  0  0  0  0
   14.5200    7.0000    0.0000 O   0  0  0  0  0  0  0  0  0  0  0  0
   15.7324    6.3000    0.0000 C   0  0  0  0  0  0  0  0  0  0  0  0
   15.7324    4.9000    0.0000 C   0  0  0  0  0  0  0  0  0  0  0  0
   16.9449    4.2000    0.0000 C   0  0  0  0  0  0  0  0  0  0  0  0
   18.1573    4.9000    0.0000 N   0  0  0  0  0  0  0  0  0  0  0  0
   18.1573    6.3000    0.0000 C   0  0  0  0  0  0  0  0  0  0  0  0
   16.9449    7.0000    0.0000 C   0  0  0  0  0  0  0  0  0  0  0  0
   17.2359    2.8306    0.0000 N   0  0  0  0  0  0  0  0  0  0  0  0
   18.6283    2.6843    0.0000 C   0  0  0  0  0  0  0  0  0  0  0  0
   19.1977    3.9632    0.0000 N   0  0  0  0  0  0  0  0  0  0  0  0
    4.8205    2.8000    0.0000 N   0  0  0  0  0  0  0  0  0  0  0  0
    3.6081    2.1000    0.0000 C   0  0  0  0  0  0  0  0  0  0  0  0
    2.3291    2.6694    0.0000 N   0  0  0  0  0  0  0  0  0  0  0  0
    1.3923    1.6290    0.0000 C   0  0  0  0  0  0  0  0  0  0  0  0
    2.0923    0.4166    0.0000 C   0  0  0  0  0  0  0  0  0  0  0  0
    3.4617    0.7077    0.0000 O   0  0  0  0  0  0  0  0  0  0  0  0
    0.0000    1.7754    0.0000 C   0  0  0  0  0  0  0  0  0  0  0  0
    0.4024    0.6391    0.0000 C   0  0  0  0  0  0  0  0  0  0  0  0
  1  2  2  0  0  0  0
  2  3  1  0  0  0  0
  3  4  2  0  0  0  0
  4  5  1  0  0  0  0
  5  6  2  0  0  0  0
  6  1  1  0  0  0  0
  4  7  1  0  0  0  0
  7  8  2  0  0  0  0
  8  9  1  0  0  0  0
  9 10  2  0  0  0  0
 10  5  1  0  0  0  0
 10 11  1  0  0  0  0
 11 12  1  0  0  0  0
 12 13  2  0  0  0  0
 13 14  1  0  0  0  0
 14 15  2  0  0  0  0
 15 16  1  0  0  0  0
 16 17  2  0  0  0  0
 17 12  1  0  0  0  0
 16 18  1  0  0  0  0
 15 19  1  0  0  0  0
 19 20  1  0  0  0  0
 20 21  2  0  0  0  0
 21 22  1  0  0  0  0
 22 23  1  0  0  0  0
 23 24  1  0  0  0  0
 24 25  2  0  0  0  0
 25 20  1  0  0  0  0
 22 26  2  0  0  0  0
 26 27  1  0  0  0  0
 27 28  2  0  0  0  0
 28 23  1  0  0  0  0
  1 29  1  0  0  0  0
 29 30  1  0  0  0  0
 30 31  2  0  0  0  0
 31 32  1  0  0  0  0
 32 33  1  0  0  0  0
 33 34  1  0  0  0  0
 34 30  1  0  0  0  0
 32 35  1  0  0  0  0
 32 36  1  0  0  0  0
M  END
>  <Mol_ID> (602)
3287

>  <Formula> (602)
C26H24N8O2

>  <MolWeight> (602)
480.52116

>  <Cat> (602)
S8362

>  <Name> (602)
ARRY-380 (ONT-380)

>  <Synonyms> (602)
Tucatinib

>  <Target> (602)
HER2

>  <Form> (602)
Free Base

>  <CAS> (602)
937263-43-9

>  <URL> (602)
http://www.selleckchem.com/products/arry-380-ont-380.html

$$$$
LY2801653 (Merestinib).cdx
csChFnd80/05071909292D

 41 46  0  0  0  0  0  0  0  0999 V2000
   10.9119   10.5000    0.0000 C   0  0  0  0  0  0  0  0  0  0  0  0
   10.9119    9.1000    0.0000 C   0  0  0  0  0  0  0  0  0  0  0  0
   12.1244    8.4000    0.0000 C   0  0  0  0  0  0  0  0  0  0  0  0
   13.3368    9.1000    0.0000 C   0  0  0  0  0  0  0  0  0  0  0  0
   13.3368   10.5000    0.0000 C   0  0  0  0  0  0  0  0  0  0  0  0
   12.1244   11.2000    0.0000 C   0  0  0  0  0  0  0  0  0  0  0  0
   14.6683    8.6674    0.0000 C   0  0  0  0  0  0  0  0  0  0  0  0
   15.4912    9.8000    0.0000 N   0  0  0  0  0  0  0  0  0  0  0  0
   14.6683   10.9326    0.0000 N   0  0  0  0  0  0  0  0  0  0  0  0
    9.6995   11.2000    0.0000 C   0  0  0  0  0  0  0  0  0  0  0  0
    9.6995    8.4000    0.0000 O   0  0  0  0  0  0  0  0  0  0  0  0
    9.6995    7.0000    0.0000 C   0  0  0  0  0  0  0  0  0  0  0  0
    8.4870    6.3000    0.0000 C   0  0  0  0  0  0  0  0  0  0  0  0
    8.4870    4.9000    0.0000 C   0  0  0  0  0  0  0  0  0  0  0  0
    9.6995    4.2000    0.0000 C   0  0  0  0  0  0  0  0  0  0  0  0
   10.9119    4.9000    0.0000 C   0  0  0  0  0  0  0  0  0  0  0  0
   10.9119    6.3000    0.0000 C   0  0  0  0  0  0  0  0  0  0  0  0
    9.5531   12.5923    0.0000 C   0  0  0  0  0  0  0  0  0  0  0  0
    8.1837   12.8834    0.0000 N   0  0  0  0  0  0  0  0  0  0  0  0
    7.4837   11.6710    0.0000 N   0  0  0  0  0  0  0  0  0  0  0  0
    8.4205   10.6306    0.0000 C   0  0  0  0  0  0  0  0  0  0  0  0
   15.1009   12.2641    0.0000 C   0  0  0  0  0  0  0  0  0  0  0  0
    7.2746    7.0000    0.0000 F   0  0  0  0  0  0  0  0  0  0  0  0
    9.6995    2.8000    0.0000 N   0  0  0  0  0  0  0  0  0  0  0  0
    8.4870    2.1000    0.0000 C   0  0  0  0  0  0  0  0  0  0  0  0
    7.2746    2.8000    0.0000 C   0  0  0  0  0  0  0  0  0  0  0  0
    8.4870    0.7000    0.0000 O   0  0  0  0  0  0  0  0  0  0  0  0
    7.2746    4.2000    0.0000 C   0  0  0  0  0  0  0  0  0  0  0  0
    6.0622    4.9000    0.0000 C   0  0  0  0  0  0  0  0  0  0  0  0
    4.8497    4.2000    0.0000 C   0  0  0  0  0  0  0  0  0  0  0  0
    4.8497    2.8000    0.0000 N   0  0  0  0  0  0  0  0  0  0  0  0
    6.0622    2.1000    0.0000 C   0  0  0  0  0  0  0  0  0  0  0  0
    6.0622    0.7000    0.0000 O   0  0  0  0  0  0  0  0  0  0  0  0
    3.6373    4.9000    0.0000 C   0  0  0  0  0  0  0  0  0  0  0  0
    3.6373    2.1000    0.0000 C   0  0  0  0  0  0  0  0  0  0  0  0
    2.4249    2.8000    0.0000 C   0  0  0  0  0  0  0  0  0  0  0  0
    1.2124    2.1000    0.0000 C   0  0  0  0  0  0  0  0  0  0  0  0
    1.2124    0.7000    0.0000 C   0  0  0  0  0  0  0  0  0  0  0  0
    2.4249    0.0000    0.0000 C   0  0  0  0  0  0  0  0  0  0  0  0
    3.6373    0.7000    0.0000 C   0  0  0  0  0  0  0  0  0  0  0  0
    0.0000    0.0000    0.0000 F   0  0  0  0  0  0  0  0  0  0  0  0
  1  2  2  0  0  0  0
  2  3  1  0  0  0  0
  3  4  2  0  0  0  0
  4  5  1  0  0  0  0
  5  6  2  0  0  0  0
  6  1  1  0  0  0  0
  4  7  1  0  0  0  0
  7  8  2  0  0  0  0
  8  9  1  0  0  0  0
  9  5  1  0  0  0  0
  1 10  1  0  0  0  0
  2 11  1  0  0  0  0
 11 12  1  0  0  0  0
 12 13  2  0  0  0  0
 13 14  1  0  0  0  0
 14 15  2  0  0  0  0
 15 16  1  0  0  0  0
 16 17  2  0  0  0  0
 17 12  1  0  0  0  0
 10 18  1  0  0  0  0
 18 19  2  0  0  0  0
 19 20  1  0  0  0  0
 20 21  1  0  0  0  0
 21 10  2  0  0  0  0
  9 22  1  0  0  0  0
 13 23  1  0  0  0  0
 15 24  1  0  0  0  0
 24 25  1  0  0  0  0
 25 26  1  0  0  0  0
 25 27  2  0  0  0  0
 26 28  2  0  0  0  0
 28 29  1  0  0  0  0
 29 30  2  0  0  0  0
 30 31  1  0  0  0  0
 31 32  1  0  0  0  0
 32 26  1  0  0  0  0
 32 33  2  0  0  0  0
 30 34  1  0  0  0  0
 31 35  1  0  0  0  0
 35 36  2  0  0  0  0
 36 37  1  0  0  0  0
 37 38  2  0  0  0  0
 38 39  1  0  0  0  0
 39 40  2  0  0  0  0
 40 35  1  0  0  0  0
 38 41  1  0  0  0  0
M  END
>  <Mol_ID> (603)
3289

>  <Formula> (603)
C30H22F2N6O3

>  <MolWeight> (603)
552.5308864

>  <Cat> (603)
S7014

>  <Name> (603)
LY2801653 (Merestinib)

>  <Synonyms> (603)
N/A

>  <Target> (603)
c-Met

>  <Form> (603)
Free Base

>  <CAS> (603)
1206799-15-6

>  <URL> (603)
http://www.selleckchem.com/products/ly2801653-merestinib.html

$$$$
GDC-0084.cdx
csChFnd80/05071909292D

 28 32  0  0  0  0  0  0  0  0999 V2000
    4.9467    4.2000    0.0000 C   0  0  0  0  0  0  0  0  0  0  0  0
    4.9467    2.8000    0.0000 C   0  0  0  0  0  0  0  0  0  0  0  0
    6.1591    2.1000    0.0000 N   0  0  0  0  0  0  0  0  0  0  0  0
    7.3716    2.8000    0.0000 C   0  0  0  0  0  0  0  0  0  0  0  0
    7.3716    4.2000    0.0000 N   0  0  0  0  0  0  0  0  0  0  0  0
    6.1591    4.9000    0.0000 C   0  0  0  0  0  0  0  0  0  0  0  0
    3.6152    4.6326    0.0000 N   0  0  0  0  0  0  0  0  0  0  0  0
    2.7923    3.5000    0.0000 C   0  0  0  0  0  0  0  0  0  0  0  0
    3.6152    2.3674    0.0000 N   0  0  0  0  0  0  0  0  0  0  0  0
    1.4000    3.3537    0.0000 C   0  0  0  0  0  0  0  0  0  0  0  0
    0.8306    2.0747    0.0000 O   0  0  0  0  0  0  0  0  0  0  0  0
    1.6535    0.9421    0.0000 C   0  0  0  0  0  0  0  0  0  0  0  0
    3.0458    1.0884    0.0000 C   0  0  0  0  0  0  0  0  0  0  0  0
    6.1591    6.3000    0.0000 N   0  0  0  0  0  0  0  0  0  0  0  0
    7.3716    7.0000    0.0000 C   0  0  0  0  0  0  0  0  0  0  0  0
    7.3716    8.4000    0.0000 C   0  0  0  0  0  0  0  0  0  0  0  0
    6.1591    9.1000    0.0000 O   0  0  0  0  0  0  0  0  0  0  0  0
    4.9467    8.4000    0.0000 C   0  0  0  0  0  0  0  0  0  0  0  0
    4.9467    7.0000    0.0000 C   0  0  0  0  0  0  0  0  0  0  0  0
    8.5840    2.1000    0.0000 C   0  0  0  0  0  0  0  0  0  0  0  0
    8.5840    0.7000    0.0000 C   0  0  0  0  0  0  0  0  0  0  0  0
    9.7965    0.0000    0.0000 N   0  0  0  0  0  0  0  0  0  0  0  0
   11.0089    0.7000    0.0000 C   0  0  0  0  0  0  0  0  0  0  0  0
   11.0089    2.1000    0.0000 N   0  0  0  0  0  0  0  0  0  0  0  0
    9.7965    2.8000    0.0000 C   0  0  0  0  0  0  0  0  0  0  0  0
    1.7623    4.7060    0.0000 C   0  0  0  0  0  0  0  0  0  0  0  0
    0.0000    3.3537    0.0000 C   0  0  0  0  0  0  0  0  0  0  0  0
   12.2213    0.0000    0.0000 N   0  0  0  0  0  0  0  0  0  0  0  0
  1  2  2  0  0  0  0
  2  3  1  0  0  0  0
  3  4  2  0  0  0  0
  4  5  1  0  0  0  0
  5  6  2  0  0  0  0
  6  1  1  0  0  0  0
  1  7  1  0  0  0  0
  7  8  2  0  0  0  0
  8  9  1  0  0  0  0
  9  2  1  0  0  0  0
  8 10  1  0  0  0  0
 10 11  1  0  0  0  0
 11 12  1  0  0  0  0
 12 13  1  0  0  0  0
 13  9  1  0  0  0  0
  6 14  1  0  0  0  0
 14 15  1  0  0  0  0
 15 16  1  0  0  0  0
 16 17  1  0  0  0  0
 17 18  1  0  0  0  0
 18 19  1  0  0  0  0
 19 14  1  0  0  0  0
  4 20  1  0  0  0  0
 20 21  2  0  0  0  0
 21 22  1  0  0  0  0
 22 23  2  0  0  0  0
 23 24  1  0  0  0  0
 24 25  2  0  0  0  0
 25 20  1  0  0  0  0
 10 26  1  0  0  0  0
 10 27  1  0  0  0  0
 23 28  1  0  0  0  0
M  END
>  <Mol_ID> (604)
3290

>  <Formula> (604)
C18H22N8O2

>  <MolWeight> (604)
382.41968

>  <Cat> (604)
S8163

>  <Name> (604)
GDC-0084

>  <Synonyms> (604)
N/A

>  <Target> (604)
PI3K

>  <Form> (604)
Free Base

>  <CAS> (604)
1382979-44-3

>  <URL> (604)
http://www.selleckchem.com/products/gdc-0084.html

$$$$
ML-7.cdx
csChFnd80/05071909292D

 22 23  0  0  0  0  0  0  0  0999 V2000
    0.0000    3.5000    0.0000 C   0  0  0  0  0  0  0  0  0  0  0  0
    0.0000    2.1000    0.0000 C   0  0  0  0  0  0  0  0  0  0  0  0
    1.2124    1.4000    0.0000 C   0  0  0  0  0  0  0  0  0  0  0  0
    2.4249    2.1000    0.0000 C   0  0  0  0  0  0  0  0  0  0  0  0
    2.4249    3.5000    0.0000 C   0  0  0  0  0  0  0  0  0  0  0  0
    1.2124    4.2000    0.0000 C   0  0  0  0  0  0  0  0  0  0  0  0
    3.6373    1.4000    0.0000 C   0  0  0  0  0  0  0  0  0  0  0  0
    4.8497    2.1000    0.0000 C   0  0  0  0  0  0  0  0  0  0  0  0
    4.8497    3.5000    0.0000 C   0  0  0  0  0  0  0  0  0  0  0  0
    3.6373    4.2000    0.0000 C   0  0  0  0  0  0  0  0  0  0  0  0
    1.2124    0.0000    0.0000 I   0  0  0  0  0  0  0  0  0  0  0  0
    3.6373    5.6000    0.0000 S   0  0  0  0  0  0  0  0  0  0  0  0
    2.2373    5.6000    0.0000 O   0  0  0  0  0  0  0  0  0  0  0  0
    5.0373    5.6000    0.0000 O   0  0  0  0  0  0  0  0  0  0  0  0
    3.6373    7.0000    0.0000 N   0  0  0  0  0  0  0  0  0  0  0  0
    4.8987    7.6074    0.0000 C   0  0  0  0  0  0  0  0  0  0  0  0
    5.2102    8.9723    0.0000 C   0  0  0  0  0  0  0  0  0  0  0  0
    4.3373   10.0669    0.0000 N   0  0  0  0  0  0  0  0  0  0  0  0
    2.9373   10.0669    0.0000 C   0  0  0  0  0  0  0  0  0  0  0  0
    2.0644    8.9723    0.0000 C   0  0  0  0  0  0  0  0  0  0  0  0
    2.3760    7.6074    0.0000 C   0  0  0  0  0  0  0  0  0  0  0  0
    6.3137    4.1020    0.0000 Cl  0  0  0  0  0  0  0  0  0  0  0  0
  1  2  2  0  0  0  0
  2  3  1  0  0  0  0
  3  4  2  0  0  0  0
  4  5  1  0  0  0  0
  5  6  2  0  0  0  0
  6  1  1  0  0  0  0
  4  7  1  0  0  0  0
  7  8  2  0  0  0  0
  8  9  1  0  0  0  0
  9 10  2  0  0  0  0
 10  5  1  0  0  0  0
  3 11  1  0  0  0  0
 10 12  1  0  0  0  0
 12 13  2  0  0  0  0
 12 14  2  0  0  0  0
 12 15  1  0  0  0  0
 15 16  1  0  0  0  0
 16 17  1  0  0  0  0
 17 18  1  0  0  0  0
 18 19  1  0  0  0  0
 19 20  1  0  0  0  0
 20 21  1  0  0  0  0
 21 15  1  0  0  0  0
M  END
>  <Mol_ID> (605)
3294

>  <Formula> (605)
C15H18ClIN2O2S

>  <MolWeight> (605)
452.73809

>  <Cat> (605)
S8388

>  <Name> (605)
ML-7 HCl

>  <Synonyms> (605)
N/A

>  <Target> (605)
Others

>  <Form> (605)
hydrochloride

>  <CAS> (605)
110448-33-4

>  <URL> (605)
http://www.selleckchem.com/products/ml-7.html

$$$$
CC-115.cdx
csChFnd80/05071909292D

 25 28  0  0  0  0  0  0  0  0999 V2000
    3.4282    4.2000    0.0000 C   0  0  0  0  0  0  0  0  0  0  0  0
    3.4282    2.8000    0.0000 N   0  0  0  0  0  0  0  0  0  0  0  0
    4.6406    2.1000    0.0000 C   0  0  0  0  0  0  0  0  0  0  0  0
    5.8531    2.8000    0.0000 C   0  0  0  0  0  0  0  0  0  0  0  0
    5.8531    4.2000    0.0000 C   0  0  0  0  0  0  0  0  0  0  0  0
    4.6406    4.9000    0.0000 C   0  0  0  0  0  0  0  0  0  0  0  0
    2.2157    4.9000    0.0000 C   0  0  0  0  0  0  0  0  0  0  0  0
    7.0655    2.1000    0.0000 C   0  0  0  0  0  0  0  0  0  0  0  0
    4.6406    0.7000    0.0000 C   0  0  0  0  0  0  0  0  0  0  0  0
    7.0655    0.7000    0.0000 C   0  0  0  0  0  0  0  0  0  0  0  0
    8.2779    0.0000    0.0000 N   0  0  0  0  0  0  0  0  0  0  0  0
    9.4904    0.7000    0.0000 C   0  0  0  0  0  0  0  0  0  0  0  0
    9.4904    2.1000    0.0000 C   0  0  0  0  0  0  0  0  0  0  0  0
    8.2779    2.8000    0.0000 N   0  0  0  0  0  0  0  0  0  0  0  0
   10.7028    0.0000    0.0000 N   0  0  0  0  0  0  0  0  0  0  0  0
   11.9152    0.7000    0.0000 C   0  0  0  0  0  0  0  0  0  0  0  0
   11.9152    2.1000    0.0000 C   0  0  0  0  0  0  0  0  0  0  0  0
   10.7028    2.8000    0.0000 N   0  0  0  0  0  0  0  0  0  0  0  0
   10.7028    4.2000    0.0000 C   0  0  0  0  0  0  0  0  0  0  0  0
    9.4904    4.9000    0.0000 C   0  0  0  0  0  0  0  0  0  0  0  0
   13.1277    2.8000    0.0000 O   0  0  0  0  0  0  0  0  0  0  0  0
    2.0694    6.2923    0.0000 N   0  0  0  0  0  0  0  0  0  0  0  0
    0.7000    6.5834    0.0000 N   0  0  0  0  0  0  0  0  0  0  0  0
    0.0000    5.3710    0.0000 C   0  0  0  0  0  0  0  0  0  0  0  0
    0.9368    4.3306    0.0000 N   0  0  0  0  0  0  0  0  0  0  0  0
  1  2  2  0  0  0  0
  2  3  1  0  0  0  0
  3  4  2  0  0  0  0
  4  5  1  0  0  0  0
  5  6  2  0  0  0  0
  6  1  1  0  0  0  0
  1  7  1  0  0  0  0
  4  8  1  0  0  0  0
  3  9  1  0  0  0  0
  8 10  2  0  0  0  0
 10 11  1  0  0  0  0
 11 12  2  0  0  0  0
 12 13  1  0  0  0  0
 13 14  2  0  0  0  0
 14  8  1  0  0  0  0
 12 15  1  0  0  0  0
 15 16  1  0  0  0  0
 16 17  1  0  0  0  0
 17 18  1  0  0  0  0
 18 13  1  0  0  0  0
 18 19  1  0  0  0  0
 19 20  1  0  0  0  0
 17 21  2  0  0  0  0
  7 22  2  0  0  0  0
 22 23  1  0  0  0  0
 23 24  1  0  0  0  0
 24 25  2  0  0  0  0
 25  7  1  0  0  0  0
M  END
>  <Mol_ID> (606)
3297

>  <Formula> (606)
C16H16N8O

>  <MolWeight> (606)
336.35124

>  <Cat> (606)
S7891

>  <Name> (606)
CC-115

>  <Synonyms> (606)
N/A

>  <Target> (606)
DNA-PK

>  <Form> (606)
Free Base

>  <CAS> (606)
1228013-15-7

>  <URL> (606)
http://www.selleckchem.com/products/cc-115.html

$$$$
CZ415.cdx
csChFnd80/05071909292D

 32 35  0  0  0  0  0  0  0  0999 V2000
    3.3668    4.2000    0.0000 C   0  0  0  0  0  0  0  0  0  0  0  0
    3.3668    2.8000    0.0000 C   0  0  0  0  0  0  0  0  0  0  0  0
    4.5792    2.1000    0.0000 N   0  0  0  0  0  0  0  0  0  0  0  0
    5.7917    2.8000    0.0000 C   0  0  0  0  0  0  0  0  0  0  0  0
    5.7917    4.2000    0.0000 N   0  0  0  0  0  0  0  0  0  0  0  0
    4.5792    4.9000    0.0000 C   0  0  0  0  0  0  0  0  0  0  0  0
    2.0353    4.6326    0.0000 C   0  0  0  0  0  0  0  0  0  0  0  0
    1.2124    3.5000    0.0000 S   0  0  0  0  0  0  0  0  0  0  0  0
    2.0353    2.3674    0.0000 C   0  0  0  0  0  0  0  0  0  0  0  0
    4.5792    6.3000    0.0000 N   0  0  0  0  0  0  0  0  0  0  0  0
    7.0041    2.1000    0.0000 C   0  0  0  0  0  0  0  0  0  0  0  0
    0.0000    4.2000    0.0000 O   0  0  0  0  0  0  0  0  0  0  0  0
    0.2225    2.5101    0.0000 O   0  0  0  0  0  0  0  0  0  0  0  0
    0.8229    1.6674    0.0000 C   0  0  0  0  0  0  0  0  0  0  0  0
    2.3977    1.0151    0.0000 C   0  0  0  0  0  0  0  0  0  0  0  0
    5.7917    7.0000    0.0000 C   0  0  2  0  0  0  0  0  0  0  0  0
    5.7917    8.4000    0.0000 C   0  0  0  0  0  0  0  0  0  0  0  0
    4.5792    9.1000    0.0000 O   0  0  0  0  0  0  0  0  0  0  0  0
    3.3668    8.4000    0.0000 C   0  0  0  0  0  0  0  0  0  0  0  0
    3.3668    7.0000    0.0000 C   0  0  0  0  0  0  0  0  0  0  0  0
    7.0041    0.7000    0.0000 C   0  0  0  0  0  0  0  0  0  0  0  0
    8.2166    0.0000    0.0000 C   0  0  0  0  0  0  0  0  0  0  0  0
    9.4290    0.7000    0.0000 C   0  0  0  0  0  0  0  0  0  0  0  0
    9.4290    2.1000    0.0000 C   0  0  0  0  0  0  0  0  0  0  0  0
    8.2166    2.8000    0.0000 C   0  0  0  0  0  0  0  0  0  0  0  0
   10.6414    0.0000    0.0000 N   0  0  0  0  0  0  0  0  0  0  0  0
   11.8539    0.7000    0.0000 C   0  0  0  0  0  0  0  0  0  0  0  0
   13.0663    0.0000    0.0000 N   0  0  0  0  0  0  0  0  0  0  0  0
   11.8539    2.1000    0.0000 O   0  0  0  0  0  0  0  0  0  0  0  0
   14.2787    0.7000    0.0000 C   0  0  0  0  0  0  0  0  0  0  0  0
   15.4912    0.0000    0.0000 C   0  0  0  0  0  0  0  0  0  0  0  0
    6.9999    6.3024    0.0000 C   0  0  0  0  0  0  0  0  0  0  0  0
  1  2  2  0  0  0  0
  2  3  1  0  0  0  0
  3  4  2  0  0  0  0
  4  5  1  0  0  0  0
  5  6  2  0  0  0  0
  6  1  1  0  0  0  0
  1  7  1  0  0  0  0
  7  8  1  0  0  0  0
  8  9  1  0  0  0  0
  9  2  1  0  0  0  0
  6 10  1  0  0  0  0
  4 11  1  0  0  0  0
  8 12  2  0  0  0  0
  8 13  2  0  0  0  0
  9 14  1  0  0  0  0
  9 15  1  0  0  0  0
 10 16  1  0  0  0  0
 16 17  1  0  0  0  0
 17 18  1  0  0  0  0
 18 19  1  0  0  0  0
 19 20  1  0  0  0  0
 20 10  1  0  0  0  0
 11 21  2  0  0  0  0
 21 22  1  0  0  0  0
 22 23  2  0  0  0  0
 23 24  1  0  0  0  0
 24 25  2  0  0  0  0
 25 11  1  0  0  0  0
 23 26  1  0  0  0  0
 26 27  1  0  0  0  0
 27 28  1  0  0  0  0
 27 29  2  0  0  0  0
 28 30  1  0  0  0  0
 30 31  1  0  0  0  0
 16 32  1  6  0  0  0
M  END
>  <Mol_ID> (607)
3298

>  <Formula> (607)
C22H29N5O4S

>  <MolWeight> (607)
459.56176

>  <Cat> (607)
S8298

>  <Name> (607)
CZ415

>  <Synonyms> (607)
N/A

>  <Target> (607)
mTOR

>  <Form> (607)
Free Base

>  <CAS> (607)
1429639-50-8

>  <URL> (607)
http://www.selleckchem.com/products/cz415.html

$$$$
XMD16-5.cdx
csChFnd80/05071909292D

 31 35  0  0  0  0  0  0  0  0999 V2000
    0.0000    7.7000    0.0000 C   0  0  0  0  0  0  0  0  0  0  0  0
    0.0000    6.3000    0.0000 C   0  0  0  0  0  0  0  0  0  0  0  0
    1.2124    5.6000    0.0000 C   0  0  0  0  0  0  0  0  0  0  0  0
    2.4249    6.3000    0.0000 C   0  0  0  0  0  0  0  0  0  0  0  0
    2.4249    7.7000    0.0000 C   0  0  0  0  0  0  0  0  0  0  0  0
    1.2124    8.4000    0.0000 C   0  0  0  0  0  0  0  0  0  0  0  0
    1.2124    9.8000    0.0000 N   0  0  0  0  0  0  0  0  0  0  0  0
    1.2124    4.2000    0.0000 N   0  0  0  0  0  0  0  0  0  0  0  0
    2.4249   10.5000    0.0000 C   0  0  0  0  0  0  0  0  0  0  0  0
    3.6373    9.8000    0.0000 N   0  0  0  0  0  0  0  0  0  0  0  0
    4.8497   10.5000    0.0000 C   0  0  0  0  0  0  0  0  0  0  0  0
    4.8497   11.9000    0.0000 C   0  0  0  0  0  0  0  0  0  0  0  0
    3.6373   12.6000    0.0000 C   0  0  0  0  0  0  0  0  0  0  0  0
    2.4249   11.9000    0.0000 N   0  0  0  0  0  0  0  0  0  0  0  0
    5.9443    9.6271    0.0000 N   0  0  0  0  0  0  0  0  0  0  0  0
    7.3092    9.9386    0.0000 C   0  0  0  0  0  0  0  0  0  0  0  0
    7.9166   11.2000    0.0000 C   0  0  0  0  0  0  0  0  0  0  0  0
    7.3092   12.4614    0.0000 C   0  0  0  0  0  0  0  0  0  0  0  0
    5.9443   12.7729    0.0000 N   0  0  0  0  0  0  0  0  0  0  0  0
    8.0979    8.7819    0.0000 C   0  0  0  0  0  0  0  0  0  0  0  0
    9.4939    8.8865    0.0000 C   0  0  0  0  0  0  0  0  0  0  0  0
   10.1014   10.1479    0.0000 C   0  0  0  0  0  0  0  0  0  0  0  0
    9.3127   11.3046    0.0000 C   0  0  0  0  0  0  0  0  0  0  0  0
    5.6328    8.2622    0.0000 C   0  0  0  0  0  0  0  0  0  0  0  0
    8.1821   13.5559    0.0000 O   0  0  0  0  0  0  0  0  0  0  0  0
    0.0000    3.5000    0.0000 C   0  0  0  0  0  0  0  0  0  0  0  0
    0.0000    2.1000    0.0000 C   0  0  0  0  0  0  0  0  0  0  0  0
    1.2124    1.4000    0.0000 C   0  0  0  0  0  0  0  0  0  0  0  0
    2.4249    2.1000    0.0000 C   0  0  0  0  0  0  0  0  0  0  0  0
    2.4249    3.5000    0.0000 C   0  0  0  0  0  0  0  0  0  0  0  0
    1.2124    0.0000    0.0000 O   0  0  0  0  0  0  0  0  0  0  0  0
  1  2  2  0  0  0  0
  2  3  1  0  0  0  0
  3  4  2  0  0  0  0
  4  5  1  0  0  0  0
  5  6  2  0  0  0  0
  6  1  1  0  0  0  0
  6  7  1  0  0  0  0
  3  8  1  0  0  0  0
  7  9  1  0  0  0  0
  9 10  2  0  0  0  0
 10 11  1  0  0  0  0
 11 12  2  0  0  0  0
 12 13  1  0  0  0  0
 13 14  2  0  0  0  0
 14  9  1  0  0  0  0
 11 15  1  0  0  0  0
 15 16  1  0  0  0  0
 16 17  2  0  0  0  0
 17 18  1  0  0  0  0
 18 19  1  0  0  0  0
 19 12  1  0  0  0  0
 16 20  1  0  0  0  0
 20 21  2  0  0  0  0
 21 22  1  0  0  0  0
 22 23  2  0  0  0  0
 23 17  1  0  0  0  0
 15 24  1  0  0  0  0
 18 25  2  0  0  0  0
  8 26  1  0  0  0  0
 26 27  1  0  0  0  0
 27 28  1  0  0  0  0
 28 29  1  0  0  0  0
 29 30  1  0  0  0  0
 30  8  1  0  0  0  0
 28 31  1  0  0  0  0
M  END
>  <Mol_ID> (608)
3299

>  <Formula> (608)
C23H24N6O2

>  <MolWeight> (608)
416.47566

>  <Cat> (608)
S8273

>  <Name> (608)
XMD16-5

>  <Synonyms> (608)
N/A

>  <Target> (608)
ACK

>  <Form> (608)
Free Base

>  <CAS> (608)
1345098-78-3

>  <URL> (608)
http://www.selleckchem.com/products/xmd16-5.html

$$$$
XMD8-87.cdx
csChFnd80/05071909292D

 33 37  0  0  0  0  0  0  0  0999 V2000
    2.4165    7.7000    0.0000 C   0  0  0  0  0  0  0  0  0  0  0  0
    2.4165    6.3000    0.0000 C   0  0  0  0  0  0  0  0  0  0  0  0
    3.6289    5.6000    0.0000 C   0  0  0  0  0  0  0  0  0  0  0  0
    4.8413    6.3000    0.0000 C   0  0  0  0  0  0  0  0  0  0  0  0
    4.8413    7.7000    0.0000 C   0  0  0  0  0  0  0  0  0  0  0  0
    3.6289    8.4000    0.0000 C   0  0  0  0  0  0  0  0  0  0  0  0
    3.6289    9.8000    0.0000 N   0  0  0  0  0  0  0  0  0  0  0  0
    3.6289    4.2000    0.0000 N   0  0  0  0  0  0  0  0  0  0  0  0
    4.8413   10.5000    0.0000 C   0  0  0  0  0  0  0  0  0  0  0  0
    6.0538    9.8000    0.0000 N   0  0  0  0  0  0  0  0  0  0  0  0
    7.2662   10.5000    0.0000 C   0  0  0  0  0  0  0  0  0  0  0  0
    7.2662   11.9000    0.0000 C   0  0  0  0  0  0  0  0  0  0  0  0
    6.0538   12.6000    0.0000 C   0  0  0  0  0  0  0  0  0  0  0  0
    4.8413   11.9000    0.0000 N   0  0  0  0  0  0  0  0  0  0  0  0
    8.3608    9.6271    0.0000 N   0  0  0  0  0  0  0  0  0  0  0  0
    9.7257    9.9386    0.0000 C   0  0  0  0  0  0  0  0  0  0  0  0
   10.3331   11.2000    0.0000 C   0  0  0  0  0  0  0  0  0  0  0  0
    9.7257   12.4614    0.0000 C   0  0  0  0  0  0  0  0  0  0  0  0
    8.3608   12.7729    0.0000 N   0  0  0  0  0  0  0  0  0  0  0  0
   10.5143    8.7819    0.0000 C   0  0  0  0  0  0  0  0  0  0  0  0
   11.9104    8.8865    0.0000 C   0  0  0  0  0  0  0  0  0  0  0  0
   12.5178   10.1479    0.0000 C   0  0  0  0  0  0  0  0  0  0  0  0
   11.7292   11.3046    0.0000 C   0  0  0  0  0  0  0  0  0  0  0  0
    8.0492    8.2622    0.0000 C   0  0  0  0  0  0  0  0  0  0  0  0
   10.5985   13.5559    0.0000 O   0  0  0  0  0  0  0  0  0  0  0  0
    2.4165    3.5000    0.0000 C   0  0  0  0  0  0  0  0  0  0  0  0
    2.4165    2.1000    0.0000 C   0  0  0  0  0  0  0  0  0  0  0  0
    3.6289    1.4000    0.0000 N   0  0  0  0  0  0  0  0  0  0  0  0
    4.8413    2.1000    0.0000 C   0  0  0  0  0  0  0  0  0  0  0  0
    4.8413    3.5000    0.0000 C   0  0  0  0  0  0  0  0  0  0  0  0
    3.6289    0.0000    0.0000 C   0  0  0  0  0  0  0  0  0  0  0  0
    1.2082    8.3976    0.0000 O   0  0  0  0  0  0  0  0  0  0  0  0
    0.0000    7.7000    0.0000 C   0  0  0  0  0  0  0  0  0  0  0  0
  1  2  2  0  0  0  0
  2  3  1  0  0  0  0
  3  4  2  0  0  0  0
  4  5  1  0  0  0  0
  5  6  2  0  0  0  0
  6  1  1  0  0  0  0
  6  7  1  0  0  0  0
  3  8  1  0  0  0  0
  7  9  1  0  0  0  0
  9 10  2  0  0  0  0
 10 11  1  0  0  0  0
 11 12  2  0  0  0  0
 12 13  1  0  0  0  0
 13 14  2  0  0  0  0
 14  9  1  0  0  0  0
 11 15  1  0  0  0  0
 15 16  1  0  0  0  0
 16 17  2  0  0  0  0
 17 18  1  0  0  0  0
 18 19  1  0  0  0  0
 19 12  1  0  0  0  0
 16 20  1  0  0  0  0
 20 21  2  0  0  0  0
 21 22  1  0  0  0  0
 22 23  2  0  0  0  0
 23 17  1  0  0  0  0
 15 24  1  0  0  0  0
 18 25  2  0  0  0  0
  8 26  1  0  0  0  0
 26 27  1  0  0  0  0
 27 28  1  0  0  0  0
 28 29  1  0  0  0  0
 29 30  1  0  0  0  0
 30  8  1  0  0  0  0
 28 31  1  0  0  0  0
  1 32  1  0  0  0  0
 32 33  1  0  0  0  0
M  END
>  <Mol_ID> (609)
3300

>  <Formula> (609)
C24H27N7O2

>  <MolWeight> (609)
445.51688

>  <Cat> (609)
S8272

>  <Name> (609)
XMD8-87

>  <Synonyms> (609)
N/A

>  <Target> (609)
ACK

>  <Form> (609)
Free Base

>  <CAS> (609)
1234480-46-6

>  <URL> (609)
http://www.selleckchem.com/products/xmd8-87.html

$$$$
HG-9-91-01.cdx
csChFnd80/05071909292D

 33 36  0  0  0  0  0  0  0  0999 V2000
    4.8205    2.1000    0.0000 C   0  0  0  0  0  0  0  0  0  0  0  0
    4.8205    0.7000    0.0000 C   0  0  0  0  0  0  0  0  0  0  0  0
    6.0329    0.0000    0.0000 N   0  0  0  0  0  0  0  0  0  0  0  0
    7.2454    0.7000    0.0000 C   0  0  0  0  0  0  0  0  0  0  0  0
    7.2454    2.1000    0.0000 C   0  0  0  0  0  0  0  0  0  0  0  0
    6.0329    2.8000    0.0000 N   0  0  0  0  0  0  0  0  0  0  0  0
    8.4578    0.0000    0.0000 C   0  0  0  0  0  0  0  0  0  0  0  0
    9.6703    0.7000    0.0000 C   0  0  0  0  0  0  0  0  0  0  0  0
    9.6703    2.1000    0.0000 C   0  0  0  0  0  0  0  0  0  0  0  0
    8.4578    2.8000    0.0000 C   0  0  0  0  0  0  0  0  0  0  0  0
    3.6081    2.8000    0.0000 C   0  0  0  0  0  0  0  0  0  0  0  0
   10.8827    2.8000    0.0000 N   0  0  0  0  0  0  0  0  0  0  0  0
   12.0951    2.1000    0.0000 C   0  0  0  0  0  0  0  0  0  0  0  0
   10.8827    4.2000    0.0000 C   0  0  0  0  0  0  0  0  0  0  0  0
   13.3076    2.8000    0.0000 C   0  0  0  0  0  0  0  0  0  0  0  0
   14.5200    2.1000    0.0000 N   0  0  0  0  0  0  0  0  0  0  0  0
   15.7324    2.8000    0.0000 C   0  0  0  0  0  0  0  0  0  0  0  0
   16.9449    2.1000    0.0000 C   0  0  0  0  0  0  0  0  0  0  0  0
   15.7324    4.2000    0.0000 C   0  0  0  0  0  0  0  0  0  0  0  0
   12.0951    4.9000    0.0000 C   0  0  0  0  0  0  0  0  0  0  0  0
   12.0951    6.3000    0.0000 C   0  0  0  0  0  0  0  0  0  0  0  0
   10.8827    7.0000    0.0000 C   0  0  0  0  0  0  0  0  0  0  0  0
    9.6703    6.3000    0.0000 C   0  0  0  0  0  0  0  0  0  0  0  0
    9.6703    4.9000    0.0000 C   0  0  0  0  0  0  0  0  0  0  0  0
    8.4578    7.0000    0.0000 O   0  0  0  0  0  0  0  0  0  0  0  0
   13.3076    7.0000    0.0000 O   0  0  0  0  0  0  0  0  0  0  0  0
   14.5200    6.3000    0.0000 C   0  0  0  0  0  0  0  0  0  0  0  0
    7.2454    6.3000    0.0000 C   0  0  0  0  0  0  0  0  0  0  0  0
    3.4617    4.1923    0.0000 C   0  0  0  0  0  0  0  0  0  0  0  0
    2.0923    4.4834    0.0000 N   0  0  0  0  0  0  0  0  0  0  0  0
    1.3923    3.2710    0.0000 N   0  0  0  0  0  0  0  0  0  0  0  0
    2.3291    2.2306    0.0000 C   0  0  0  0  0  0  0  0  0  0  0  0
    0.0000    3.1246    0.0000 C   0  0  0  0  0  0  0  0  0  0  0  0
  1  2  2  0  0  0  0
  2  3  1  0  0  0  0
  3  4  2  0  0  0  0
  4  5  1  0  0  0  0
  5  6  2  0  0  0  0
  6  1  1  0  0  0  0
  4  7  1  0  0  0  0
  7  8  2  0  0  0  0
  8  9  1  0  0  0  0
  9 10  2  0  0  0  0
 10  5  1  0  0  0  0
  1 11  1  0  0  0  0
  9 12  1  0  0  0  0
 12 13  1  0  0  0  0
 12 14  1  0  0  0  0
 13 15  1  0  0  0  0
 15 16  1  0  0  0  0
 16 17  1  0  0  0  0
 17 18  1  0  0  0  0
 17 19  1  0  0  0  0
 14 20  2  0  0  0  0
 20 21  1  0  0  0  0
 21 22  2  0  0  0  0
 22 23  1  0  0  0  0
 23 24  2  0  0  0  0
 24 14  1  0  0  0  0
 23 25  1  0  0  0  0
 21 26  1  0  0  0  0
 26 27  1  0  0  0  0
 25 28  1  0  0  0  0
 11 29  1  0  0  0  0
 29 30  2  0  0  0  0
 30 31  1  0  0  0  0
 31 32  1  0  0  0  0
 32 11  2  0  0  0  0
 31 33  1  0  0  0  0
M  END
>  <Mol_ID> (610)
3302

>  <Formula> (610)
C25H30N6O2

>  <MolWeight> (610)
446.5447

>  <Cat> (610)
S8401

>  <Name> (610)
HG-9-91-01

>  <Synonyms> (610)
N/A

>  <Target> (610)
FGFR

>  <Form> (610)
Free Base

>  <CAS> (610)
1346242-81-6

>  <URL> (610)
http://www.selleckchem.com/products/HG-9-91-01.html

$$$$
Y-39983 HCl.cdx
csChFnd80/05071909292D

 24 24  0  0  0  0  0  0  0  0999 V2000
    9.6794    5.6000    0.0000 N   0  0  0  0  0  0  0  0  0  0  0  0
    9.6794    4.2000    0.0000 C   0  0  0  0  0  0  0  0  0  0  0  0
   10.8919    3.5000    0.0000 C   0  0  0  0  0  0  0  0  0  0  0  0
   12.1043    4.2000    0.0000 C   0  0  0  0  0  0  0  0  0  0  0  0
   12.1043    5.6000    0.0000 C   0  0  0  0  0  0  0  0  0  0  0  0
   10.8919    6.3000    0.0000 C   0  0  0  0  0  0  0  0  0  0  0  0
    8.6390    3.2632    0.0000 N   0  0  0  0  0  0  0  0  0  0  0  0
    9.2085    1.9843    0.0000 C   0  0  0  0  0  0  0  0  0  0  0  0
   10.6008    2.1306    0.0000 C   0  0  0  0  0  0  0  0  0  0  0  0
   13.3168    3.5000    0.0000 N   0  0  0  0  0  0  0  0  0  0  0  0
   14.5292    4.2000    0.0000 C   0  0  0  0  0  0  0  0  0  0  0  0
   14.5292    5.6000    0.0000 O   0  0  0  0  0  0  0  0  0  0  0  0
   15.7416    3.5000    0.0000 C   0  0  0  0  0  0  0  0  0  0  0  0
   15.7416    2.1000    0.0000 C   0  0  0  0  0  0  0  0  0  0  0  0
   16.9541    1.4000    0.0000 C   0  0  0  0  0  0  0  0  0  0  0  0
   18.1665    2.1000    0.0000 C   0  0  0  0  0  0  0  0  0  0  0  0
   18.1665    3.5000    0.0000 C   0  0  0  0  0  0  0  0  0  0  0  0
   16.9541    4.2000    0.0000 C   0  0  0  0  0  0  0  0  0  0  0  0
   19.3789    1.4000    0.0000 C   0  0  1  0  0  0  0  0  0  0  0  0
   19.3789    0.0000    0.0000 N   0  0  0  0  0  0  0  0  0  0  0  0
   20.5914    2.1000    0.0000 C   0  0  0  0  0  0  0  0  0  0  0  0
   20.5914    0.7000    0.0000 H   0  0  0  0  0  0  0  0  0  0  0  0
    9.7222   28.4575    0.0000 Cl  0  0  0  0  0  0  0  0  0  0  0  0
    0.0000   28.4575    0.0000 Cl  0  0  0  0  0  0  0  0  0  0  0  0
  1  2  2  0  0  0  0
  2  3  1  0  0  0  0
  3  4  2  0  0  0  0
  4  5  1  0  0  0  0
  5  6  2  0  0  0  0
  6  1  1  0  0  0  0
  2  7  1  0  0  0  0
  7  8  1  0  0  0  0
  8  9  2  0  0  0  0
  9  3  1  0  0  0  0
  4 10  1  0  0  0  0
 10 11  1  0  0  0  0
 11 12  2  0  0  0  0
 11 13  1  0  0  0  0
 13 14  2  0  0  0  0
 14 15  1  0  0  0  0
 15 16  2  0  0  0  0
 16 17  1  0  0  0  0
 17 18  2  0  0  0  0
 18 13  1  0  0  0  0
 16 19  1  0  0  0  0
 19 20  1  6  0  0  0
 19 21  1  0  0  0  0
 19 22  1  1  0  0  0
M  END
>  <Mol_ID> (611)
3305

>  <Formula> (611)
C16H18Cl2N4O

>  <MolWeight> (611)
353.24632

>  <Cat> (611)
S7935

>  <Name> (611)
Y-39983 HCl

>  <Synonyms> (611)
Y-33075 HCl

>  <Target> (611)
ROCK

>  <Form> (611)
dihydrochloride

>  <CAS> (611)
173897-44-4

>  <URL> (611)
http://www.selleckchem.com/products/y-39983-hcl.html

$$$$
ZINC00881524 (ROCK inhibitor).cdx
csChFnd80/05071909292D

 27 30  0  0  0  0  0  0  0  0999 V2000
   11.4619    9.3686    0.0000 C   0  0  0  0  0  0  0  0  0  0  0  0
   11.4619    7.9686    0.0000 C   0  0  0  0  0  0  0  0  0  0  0  0
   12.6743    7.2686    0.0000 C   0  0  0  0  0  0  0  0  0  0  0  0
   13.8868    7.9686    0.0000 C   0  0  0  0  0  0  0  0  0  0  0  0
   13.8868    9.3686    0.0000 C   0  0  0  0  0  0  0  0  0  0  0  0
   12.6743   10.0686    0.0000 C   0  0  0  0  0  0  0  0  0  0  0  0
   10.2495    7.2686    0.0000 C   0  0  0  0  0  0  0  0  0  0  0  0
   10.2495    5.8686    0.0000 C   0  0  0  0  0  0  0  0  0  0  0  0
   11.4619    5.1686    0.0000 C   0  0  0  0  0  0  0  0  0  0  0  0
   12.6743    5.8686    0.0000 C   0  0  0  0  0  0  0  0  0  0  0  0
    8.8972    7.6310    0.0000 N   0  0  0  0  0  0  0  0  0  0  0  0
    8.1347    6.4569    0.0000 C   0  0  0  0  0  0  0  0  0  0  0  0
    9.0157    5.3689    0.0000 S   0  0  0  0  0  0  0  0  0  0  0  0
    6.7366    6.3836    0.0000 N   0  0  0  0  0  0  0  0  0  0  0  0
    6.1010    5.1362    0.0000 C   0  0  0  0  0  0  0  0  0  0  0  0
    6.8635    3.9620    0.0000 O   0  0  0  0  0  0  0  0  0  0  0  0
    4.7029    5.0629    0.0000 C   0  0  0  0  0  0  0  0  0  0  0  0
    4.0673    3.8155    0.0000 C   0  0  0  0  0  0  0  0  0  0  0  0
    2.6693    3.7422    0.0000 C   0  0  0  0  0  0  0  0  0  0  0  0
    2.0337    2.4948    0.0000 C   0  0  0  0  0  0  0  0  0  0  0  0
    2.7962    1.3207    0.0000 C   0  0  0  0  0  0  0  0  0  0  0  0
    4.1942    1.3940    0.0000 C   0  0  0  0  0  0  0  0  0  0  0  0
    4.8298    2.6414    0.0000 C   0  0  0  0  0  0  0  0  0  0  0  0
    0.6356    2.4215    0.0000 O   0  0  0  0  0  0  0  0  0  0  0  0
    2.1606    0.0733    0.0000 O   0  0  0  0  0  0  0  0  0  0  0  0
    0.7625    0.0000    0.0000 C   0  0  0  0  0  0  0  0  0  0  0  0
    0.0000    1.1741    0.0000 C   0  0  0  0  0  0  0  0  0  0  0  0
  1  2  2  0  0  0  0
  2  3  1  0  0  0  0
  3  4  2  0  0  0  0
  4  5  1  0  0  0  0
  5  6  2  0  0  0  0
  6  1  1  0  0  0  0
  2  7  1  0  0  0  0
  7  8  2  0  0  0  0
  8  9  1  0  0  0  0
  9 10  1  0  0  0  0
 10  3  1  0  0  0  0
  7 11  1  0  0  0  0
 11 12  2  0  0  0  0
 12 13  1  0  0  0  0
 13  8  1  0  0  0  0
 12 14  1  0  0  0  0
 14 15  1  0  0  0  0
 15 16  2  0  0  0  0
 15 17  1  0  0  0  0
 17 18  1  0  0  0  0
 18 19  2  0  0  0  0
 19 20  1  0  0  0  0
 20 21  2  0  0  0  0
 21 22  1  0  0  0  0
 22 23  2  0  0  0  0
 23 18  1  0  0  0  0
 20 24  1  0  0  0  0
 21 25  1  0  0  0  0
 25 26  1  0  0  0  0
 24 27  1  0  0  0  0
M  END
>  <Mol_ID> (612)
3309

>  <Formula> (612)
C21H20N2O3S

>  <MolWeight> (612)
380.4601

>  <Cat> (612)
S8448

>  <Name> (612)
ZINC00881524 (ROCK inhibitor)

>  <Synonyms> (612)
N/A

>  <Target> (612)
ROCK

>  <Form> (612)
Free Base

>  <CAS> (612)
557782-81-7

>  <URL> (612)
http://www.selleckchem.com/products/zinc00881524-rock-inhibitor.html

$$$$
STO-609.cdx
csChFnd80/05071909292D

 24 28  0  0  0  0  0  0  0  0999 V2000
    0.0000    4.2000    0.0000 C   0  0  0  0  0  0  0  0  0  0  0  0
    0.0000    2.8000    0.0000 C   0  0  0  0  0  0  0  0  0  0  0  0
    1.2124    2.1000    0.0000 C   0  0  0  0  0  0  0  0  0  0  0  0
    2.4249    2.8000    0.0000 C   0  0  0  0  0  0  0  0  0  0  0  0
    2.4249    4.2000    0.0000 C   0  0  0  0  0  0  0  0  0  0  0  0
    1.2124    4.9000    0.0000 C   0  0  0  0  0  0  0  0  0  0  0  0
    3.6373    2.1000    0.0000 C   0  0  0  0  0  0  0  0  0  0  0  0
    4.8497    2.8000    0.0000 C   0  0  0  0  0  0  0  0  0  0  0  0
    4.8497    4.2000    0.0000 C   0  0  0  0  0  0  0  0  0  0  0  0
    3.6373    4.9000    0.0000 C   0  0  0  0  0  0  0  0  0  0  0  0
    3.6373    6.3000    0.0000 C   0  0  0  0  0  0  0  0  0  0  0  0
    2.4249    7.0000    0.0000 N   0  0  0  0  0  0  0  0  0  0  0  0
    1.2124    6.3000    0.0000 C   0  0  0  0  0  0  0  0  0  0  0  0
    4.6777    7.2368    0.0000 N   0  0  0  0  0  0  0  0  0  0  0  0
    4.1083    8.5157    0.0000 C   0  0  0  0  0  0  0  0  0  0  0  0
    2.7159    8.3694    0.0000 C   0  0  0  0  0  0  0  0  0  0  0  0
    4.6777    9.7947    0.0000 C   0  0  0  0  0  0  0  0  0  0  0  0
    3.8548   10.9273    0.0000 C   0  0  0  0  0  0  0  0  0  0  0  0
    2.4625   10.7810    0.0000 C   0  0  0  0  0  0  0  0  0  0  0  0
    1.8930    9.5020    0.0000 C   0  0  0  0  0  0  0  0  0  0  0  0
    0.0000    7.0000    0.0000 O   0  0  0  0  0  0  0  0  0  0  0  0
    3.6373    0.7000    0.0000 C   0  0  0  0  0  0  0  0  0  0  0  0
    4.8497    0.0000    0.0000 O   0  0  0  0  0  0  0  0  0  0  0  0
    2.4249    0.0000    0.0000 O   0  0  0  0  0  0  0  0  0  0  0  0
  1  2  2  0  0  0  0
  2  3  1  0  0  0  0
  3  4  2  0  0  0  0
  4  5  1  0  0  0  0
  5  6  2  0  0  0  0
  6  1  1  0  0  0  0
  4  7  1  0  0  0  0
  7  8  2  0  0  0  0
  8  9  1  0  0  0  0
  9 10  2  0  0  0  0
 10  5  1  0  0  0  0
 10 11  1  0  0  0  0
 11 12  1  0  0  0  0
 12 13  1  0  0  0  0
 13  6  1  0  0  0  0
 11 14  2  0  0  0  0
 14 15  1  0  0  0  0
 15 16  2  0  0  0  0
 16 12  1  0  0  0  0
 15 17  1  0  0  0  0
 17 18  2  0  0  0  0
 18 19  1  0  0  0  0
 19 20  2  0  0  0  0
 20 16  1  0  0  0  0
 13 21  2  0  0  0  0
  7 22  1  0  0  0  0
 22 23  1  0  0  0  0
 22 24  2  0  0  0  0
M  END
>  <Mol_ID> (613)
3310

>  <Formula> (613)
C19H10N2O3

>  <MolWeight> (613)
314.2943

>  <Cat> (613)
S8274

>  <Name> (613)
STO-609

>  <Synonyms> (613)
N/A

>  <Target> (613)
CaMK

>  <Form> (613)
Free Base

>  <CAS> (613)
52029-86-4

>  <URL> (613)
http://www.selleckchem.com/products/sto-609.html

$$$$
NSC12.cdx
csChFnd80/05071909292D

 37 40  0  0  0  0  0  0  0  0999 V2000
    1.2124    2.1000    0.0000 C   0  0  0  0  0  0  0  0  0  0  0  0
    1.2124    0.7000    0.0000 C   0  0  1  0  0  0  0  0  0  0  0  0
    2.4249    0.0000    0.0000 C   0  0  0  0  0  0  0  0  0  0  0  0
    3.6373    0.7000    0.0000 C   0  0  0  0  0  0  0  0  0  0  0  0
    3.6373    2.1000    0.0000 C   0  0  2  0  0  0  0  0  0  0  0  0
    2.4249    2.8000    0.0000 C   0  0  0  0  0  0  0  0  0  0  0  0
    4.8497    0.0000    0.0000 C   0  0  0  0  0  0  0  0  0  0  0  0
    6.0622    0.7000    0.0000 C   0  0  0  0  0  0  0  0  0  0  0  0
    6.0622    2.1000    0.0000 C   0  0  2  0  0  0  0  0  0  0  0  0
    4.8497    2.8000    0.0000 C   0  0  2  0  0  0  0  0  0  0  0  0
    7.2746    2.8000    0.0000 C   0  0  1  0  0  0  0  0  0  0  0  0
    7.2746    4.2000    0.0000 C   0  0  2  0  0  0  0  0  0  0  0  0
    6.0622    4.9000    0.0000 C   0  0  0  0  0  0  0  0  0  0  0  0
    4.8497    4.2000    0.0000 C   0  0  0  0  0  0  0  0  0  0  0  0
    8.6061    2.3674    0.0000 C   0  0  0  0  0  0  0  0  0  0  0  0
    9.4290    3.5000    0.0000 C   0  0  0  0  0  0  0  0  0  0  0  0
    8.6061    4.6326    0.0000 C   0  0  2  0  0  0  0  0  0  0  0  0
    9.0387    5.9641    0.0000 C   0  0  3  0  0  0  0  0  0  0  0  0
    8.1019    7.0045    0.0000 O   0  0  0  0  0  0  0  0  0  0  0  0
   10.4081    6.2552    0.0000 C   0  0  0  0  0  0  0  0  0  0  0  0
   10.8407    7.5867    0.0000 C   0  0  0  0  0  0  0  0  0  0  0  0
   12.2102    7.8777    0.0000 C   0  0  0  0  0  0  0  0  0  0  0  0
    9.9040    8.6271    0.0000 C   0  0  0  0  0  0  0  0  0  0  0  0
   11.2031    8.9390    0.0000 O   0  0  0  0  0  0  0  0  0  0  0  0
   10.3366    9.9585    0.0000 F   0  0  0  0  0  0  0  0  0  0  0  0
    8.5346    8.3360    0.0000 F   0  0  0  0  0  0  0  0  0  0  0  0
    8.9140    9.6170    0.0000 F   0  0  0  0  0  0  0  0  0  0  0  0
   13.1469    6.8373    0.0000 F   0  0  0  0  0  0  0  0  0  0  0  0
   12.6428    9.2092    0.0000 F   0  0  0  0  0  0  0  0  0  0  0  0
   13.5624    8.2401    0.0000 F   0  0  0  0  0  0  0  0  0  0  0  0
    0.0000    0.0000    0.0000 O   0  0  0  0  0  0  0  0  0  0  0  0
    3.6373    3.5000    0.0000 C   0  0  0  0  0  0  0  0  0  0  0  0
    6.0622    3.5000    0.0000 H   0  0  0  0  0  0  0  0  0  0  0  0
    4.8497    1.4000    0.0000 H   0  0  0  0  0  0  0  0  0  0  0  0
    7.2746    1.4000    0.0000 H   0  0  0  0  0  0  0  0  0  0  0  0
    9.9584    4.9950    0.0000 H   0  0  0  0  0  0  0  0  0  0  0  0
    7.2746    5.6000    0.0000 C   0  0  0  0  0  0  0  0  0  0  0  0
  1  2  1  0  0  0  0
  2  3  1  0  0  0  0
  3  4  1  0  0  0  0
  4  5  1  0  0  0  0
  5  6  1  0  0  0  0
  6  1  1  0  0  0  0
  4  7  2  0  0  0  0
  7  8  1  0  0  0  0
  8  9  1  0  0  0  0
  9 10  1  0  0  0  0
 10  5  1  0  0  0  0
  9 11  1  0  0  0  0
 11 12  1  0  0  0  0
 12 13  1  0  0  0  0
 13 14  1  0  0  0  0
 14 10  1  0  0  0  0
 11 15  1  0  0  0  0
 15 16  1  0  0  0  0
 16 17  1  0  0  0  0
 17 12  1  0  0  0  0
 17 18  1  0  0  0  0
 18 19  1  0  0  0  0
 18 20  1  0  0  0  0
 20 21  1  0  0  0  0
 21 22  1  0  0  0  0
 21 23  1  0  0  0  0
 21 24  1  0  0  0  0
 23 25  1  0  0  0  0
 23 26  1  0  0  0  0
 23 27  1  0  0  0  0
 22 28  1  0  0  0  0
 22 29  1  0  0  0  0
 22 30  1  0  0  0  0
  2 31  1  1  0  0  0
  5 32  1  1  0  0  0
  9 33  1  1  0  0  0
 10 34  1  6  0  0  0
 11 35  1  6  0  0  0
 17 36  1  6  0  0  0
 12 37  1  1  0  0  0
M  END
>  <Mol_ID> (614)
3312

>  <Formula> (614)
C24H34F6O3

>  <MolWeight> (614)
484.5153792

>  <Cat> (614)
S7940

>  <Name> (614)
NSC12

>  <Synonyms> (614)
NSC 172285

>  <Target> (614)
FGFR

>  <Form> (614)
Free Base

>  <CAS> (614)
102586-30-1

>  <URL> (614)
http://www.selleckchem.com/products/nsc12.html

$$$$
THZ1.cdx
csChFnd80/05071909292D

 43 45  0  0  0  0  0  0  0  0999 V2000
   19.0276   16.4703    0.0000 C   0  0  0  0  0  0  0  0  0  0  0  0
   18.6653   15.1180    0.0000 C   0  0  0  0  0  0  0  0  0  0  0  0
   19.6552   14.1280    0.0000 C   0  0  0  0  0  0  0  0  0  0  0  0
   21.0075   14.4904    0.0000 N   0  0  0  0  0  0  0  0  0  0  0  0
   21.3699   15.8427    0.0000 C   0  0  0  0  0  0  0  0  0  0  0  0
   20.3799   16.8326    0.0000 N   0  0  0  0  0  0  0  0  0  0  0  0
   17.3130   14.7556    0.0000 Cl  0  0  0  0  0  0  0  0  0  0  0  0
   22.7222   16.2050    0.0000 N   0  0  0  0  0  0  0  0  0  0  0  0
   23.7121   15.2151    0.0000 C   0  0  0  0  0  0  0  0  0  0  0  0
   23.3498   13.8628    0.0000 C   0  0  0  0  0  0  0  0  0  0  0  0
   24.3397   12.8728    0.0000 C   0  0  0  0  0  0  0  0  0  0  0  0
   25.6920   13.2352    0.0000 C   0  0  0  0  0  0  0  0  0  0  0  0
   26.0544   14.5875    0.0000 C   0  0  0  0  0  0  0  0  0  0  0  0
   25.0644   15.5774    0.0000 C   0  0  0  0  0  0  0  0  0  0  0  0
   23.9774   11.5205    0.0000 N   0  0  0  0  0  0  0  0  0  0  0  0
   24.9673   10.5306    0.0000 C   0  0  0  0  0  0  0  0  0  0  0  0
   24.6050    9.1783    0.0000 C   0  0  0  0  0  0  0  0  0  0  0  0
   26.3196   10.8929    0.0000 O   0  0  0  0  0  0  0  0  0  0  0  0
   19.2941   12.7804    0.0000 C   0  0  0  0  0  0  0  0  0  0  0  0
   17.9871   12.2787    0.0000 C   0  0  0  0  0  0  0  0  0  0  0  0
   18.0604   10.8806    0.0000 C   0  0  0  0  0  0  0  0  0  0  0  0
   19.4127   10.5183    0.0000 N   0  0  0  0  0  0  0  0  0  0  0  0
   20.1752   11.6924    0.0000 C   0  0  0  0  0  0  0  0  0  0  0  0
   16.7397   12.9143    0.0000 C   0  0  0  0  0  0  0  0  0  0  0  0
   15.5656   12.1518    0.0000 C   0  0  0  0  0  0  0  0  0  0  0  0
   15.6388   10.7537    0.0000 C   0  0  0  0  0  0  0  0  0  0  0  0
   16.8862   10.1181    0.0000 C   0  0  0  0  0  0  0  0  0  0  0  0
   23.2527    8.8159    0.0000 C   0  0  0  0  0  0  0  0  0  0  0  0
   22.8903    7.4636    0.0000 C   0  0  0  0  0  0  0  0  0  0  0  0
   23.8803    6.4737    0.0000 C   0  0  0  0  0  0  0  0  0  0  0  0
   25.2326    6.8360    0.0000 C   0  0  0  0  0  0  0  0  0  0  0  0
   25.5949    8.1883    0.0000 C   0  0  0  0  0  0  0  0  0  0  0  0
   23.5192    5.1261    0.0000 N   0  0  0  0  0  0  0  0  0  0  0  0
   22.1716    4.7650    0.0000 C   0  0  0  0  0  0  0  0  0  0  0  0
   21.1851    5.7515    0.0000 O   0  0  0  0  0  0  0  0  0  0  0  0
   21.8105    3.4174    0.0000 C   0  0  0  0  0  0  0  0  0  0  0  0
   20.4629    3.0563    0.0000 C   0  0  0  0  0  0  0  0  0  0  0  0
   20.1018    1.7087    0.0000 C   0  0  0  0  0  0  0  0  0  0  0  0
   18.7542    1.3476    0.0000 N   0  0  0  0  0  0  0  0  0  0  0  0
   18.3931    0.0000    0.0000 C   0  0  0  0  0  0  0  0  0  0  0  0
   17.7677    2.3341    0.0000 C   0  0  0  0  0  0  0  0  0  0  0  0
    9.7222   30.5546    0.0000 Cl  0  0  0  0  0  0  0  0  0  0  0  0
    0.0000   30.5546    0.0000 Cl  0  0  0  0  0  0  0  0  0  0  0  0
  1  2  2  0  0  0  0
  2  3  1  0  0  0  0
  3  4  2  0  0  0  0
  4  5  1  0  0  0  0
  5  6  2  0  0  0  0
  6  1  1  0  0  0  0
  2  7  1  0  0  0  0
  5  8  1  0  0  0  0
  8  9  1  0  0  0  0
  9 10  2  0  0  0  0
 10 11  1  0  0  0  0
 11 12  2  0  0  0  0
 12 13  1  0  0  0  0
 13 14  2  0  0  0  0
 14  9  1  0  0  0  0
 11 15  1  0  0  0  0
 15 16  1  0  0  0  0
 16 17  1  0  0  0  0
 16 18  2  0  0  0  0
  3 19  1  0  0  0  0
 19 20  1  0  0  0  0
 20 21  2  0  0  0  0
 21 22  1  0  0  0  0
 22 23  1  0  0  0  0
 23 19  2  0  0  0  0
 20 24  1  0  0  0  0
 24 25  2  0  0  0  0
 25 26  1  0  0  0  0
 26 27  2  0  0  0  0
 27 21  1  0  0  0  0
 17 28  2  0  0  0  0
 28 29  1  0  0  0  0
 29 30  2  0  0  0  0
 30 31  1  0  0  0  0
 31 32  2  0  0  0  0
 32 17  1  0  0  0  0
 30 33  1  0  0  0  0
 33 34  1  0  0  0  0
 34 35  2  0  0  0  0
 34 36  1  0  0  0  0
 36 37  2  0  0  0  0
 37 38  1  0  0  0  0
 38 39  1  0  0  0  0
 39 40  1  0  0  0  0
 39 41  1  0  0  0  0
M  END
>  <Mol_ID> (615)
3314

>  <Formula> (615)
C31H30Cl3N7O2

>  <MolWeight> (615)
638.9746

>  <Cat> (615)
S7549

>  <Name> (615)
THZ1 2HCl

>  <Synonyms> (615)
N/A

>  <Target> (615)
CDK

>  <Form> (615)
dihydrochloride

>  <CAS> (615)
1604810-83-4(free base)

>  <URL> (615)
http://www.selleckchem.com/products/thz1.html

$$$$
GSK2269557.cdx
csChFnd80/05071909292D

 33 38  0  0  0  0  0  0  0  0999 V2000
    0.0000    3.6157    0.0000 C   0  0  0  0  0  0  0  0  0  0  0  0
    0.0000    2.2157    0.0000 C   0  0  0  0  0  0  0  0  0  0  0  0
    1.2124    1.5157    0.0000 C   0  0  0  0  0  0  0  0  0  0  0  0
    2.4249    2.2157    0.0000 C   0  0  0  0  0  0  0  0  0  0  0  0
    2.4249    3.6157    0.0000 C   0  0  0  0  0  0  0  0  0  0  0  0
    1.2124    4.3157    0.0000 C   0  0  0  0  0  0  0  0  0  0  0  0
    1.5035    0.1463    0.0000 N   0  0  0  0  0  0  0  0  0  0  0  0
    2.8958    0.0000    0.0000 C   0  0  0  0  0  0  0  0  0  0  0  0
    3.4653    1.2790    0.0000 C   0  0  0  0  0  0  0  0  0  0  0  0
    3.6373    4.3157    0.0000 C   0  0  0  0  0  0  0  0  0  0  0  0
    4.8497    3.6157    0.0000 C   0  0  0  0  0  0  0  0  0  0  0  0
    6.0622    4.3157    0.0000 C   0  0  0  0  0  0  0  0  0  0  0  0
    6.0622    5.7157    0.0000 C   0  0  0  0  0  0  0  0  0  0  0  0
    4.8497    6.4157    0.0000 C   0  0  0  0  0  0  0  0  0  0  0  0
    3.6373    5.7157    0.0000 C   0  0  0  0  0  0  0  0  0  0  0  0
    7.3937    3.8831    0.0000 N   0  0  0  0  0  0  0  0  0  0  0  0
    8.2166    5.0157    0.0000 N   0  0  0  0  0  0  0  0  0  0  0  0
    7.3937    6.1484    0.0000 C   0  0  0  0  0  0  0  0  0  0  0  0
    4.8497    7.8157    0.0000 C   0  0  0  0  0  0  0  0  0  0  0  0
    5.9824    8.6386    0.0000 N   0  0  0  0  0  0  0  0  0  0  0  0
    5.5497    9.9701    0.0000 C   0  0  0  0  0  0  0  0  0  0  0  0
    4.1497    9.9701    0.0000 C   0  0  0  0  0  0  0  0  0  0  0  0
    3.7171    8.6386    0.0000 O   0  0  0  0  0  0  0  0  0  0  0  0
    3.3268   11.1027    0.0000 C   0  0  0  0  0  0  0  0  0  0  0  0
    3.8963   12.3817    0.0000 N   0  0  0  0  0  0  0  0  0  0  0  0
    5.2886   12.5281    0.0000 C   0  0  0  0  0  0  0  0  0  0  0  0
    5.8580   13.8070    0.0000 C   0  0  0  0  0  0  0  0  0  0  0  0
    5.0351   14.9396    0.0000 N   0  0  0  0  0  0  0  0  0  0  0  0
    3.6428   14.7933    0.0000 C   0  0  0  0  0  0  0  0  0  0  0  0
    3.0734   13.5143    0.0000 C   0  0  0  0  0  0  0  0  0  0  0  0
    5.6046   16.2186    0.0000 C   0  0  0  0  0  0  0  0  0  0  0  0
    4.7817   17.3512    0.0000 C   0  0  0  0  0  0  0  0  0  0  0  0
    6.9969   16.3649    0.0000 C   0  0  0  0  0  0  0  0  0  0  0  0
  1  2  2  0  0  0  0
  2  3  1  0  0  0  0
  3  4  2  0  0  0  0
  4  5  1  0  0  0  0
  5  6  2  0  0  0  0
  6  1  1  0  0  0  0
  3  7  1  0  0  0  0
  7  8  1  0  0  0  0
  8  9  2  0  0  0  0
  9  4  1  0  0  0  0
  5 10  1  0  0  0  0
 10 11  2  0  0  0  0
 11 12  1  0  0  0  0
 12 13  2  0  0  0  0
 13 14  1  0  0  0  0
 14 15  2  0  0  0  0
 15 10  1  0  0  0  0
 12 16  1  0  0  0  0
 16 17  1  0  0  0  0
 17 18  2  0  0  0  0
 18 13  1  0  0  0  0
 14 19  1  0  0  0  0
 19 20  2  0  0  0  0
 20 21  1  0  0  0  0
 21 22  2  0  0  0  0
 22 23  1  0  0  0  0
 23 19  1  0  0  0  0
 22 24  1  0  0  0  0
 24 25  1  0  0  0  0
 25 26  1  0  0  0  0
 26 27  1  0  0  0  0
 27 28  1  0  0  0  0
 28 29  1  0  0  0  0
 29 30  1  0  0  0  0
 30 25  1  0  0  0  0
 28 31  1  0  0  0  0
 31 32  1  0  0  0  0
 31 33  1  0  0  0  0
M  END
>  <Mol_ID> (616)
3316

>  <Formula> (616)
C26H28N6O

>  <MolWeight> (616)
440.54012

>  <Cat> (616)
S7937

>  <Name> (616)
GSK2269557

>  <Synonyms> (616)
Nemiralisib

>  <Target> (616)
PI3K

>  <Form> (616)
Free Base

>  <CAS> (616)
1254036-71-9

>  <URL> (616)
http://www.selleckchem.com/products/gsk2269557.html

$$$$
S49076.cdx
csChFnd80/05071909292D

 31 35  0  0  0  0  0  0  0  0999 V2000
    4.6406    2.3291    0.0000 C   0  0  0  0  0  0  0  0  0  0  0  0
    4.6406    0.9291    0.0000 C   0  0  0  0  0  0  0  0  0  0  0  0
    5.8531    0.2291    0.0000 C   0  0  0  0  0  0  0  0  0  0  0  0
    7.0655    0.9291    0.0000 C   0  0  0  0  0  0  0  0  0  0  0  0
    7.0655    2.3291    0.0000 C   0  0  0  0  0  0  0  0  0  0  0  0
    5.8531    3.0291    0.0000 C   0  0  0  0  0  0  0  0  0  0  0  0
    8.3970    0.4965    0.0000 N   0  0  0  0  0  0  0  0  0  0  0  0
    9.2199    1.6291    0.0000 C   0  0  0  0  0  0  0  0  0  0  0  0
    8.3970    2.7617    0.0000 C   0  0  0  0  0  0  0  0  0  0  0  0
    3.4282    3.0291    0.0000 C   0  0  0  0  0  0  0  0  0  0  0  0
    2.2157    2.3291    0.0000 N   0  0  0  0  0  0  0  0  0  0  0  0
    8.8296    4.0932    0.0000 C   0  0  0  0  0  0  0  0  0  0  0  0
   10.6199    1.6291    0.0000 O   0  0  0  0  0  0  0  0  0  0  0  0
   10.1990    4.3843    0.0000 C   0  0  0  0  0  0  0  0  0  0  0  0
    0.9368    2.8985    0.0000 C   0  0  0  0  0  0  0  0  0  0  0  0
    0.0000    1.8581    0.0000 C   0  0  0  0  0  0  0  0  0  0  0  0
    0.7000    0.6457    0.0000 S   0  0  0  0  0  0  0  0  0  0  0  0
    2.0694    0.9368    0.0000 C   0  0  0  0  0  0  0  0  0  0  0  0
    0.6457    4.2680    0.0000 O   0  0  0  0  0  0  0  0  0  0  0  0
    3.1098    0.0000    0.0000 O   0  0  0  0  0  0  0  0  0  0  0  0
   11.2394    3.4475    0.0000 C   0  0  0  0  0  0  0  0  0  0  0  0
   12.4518    4.1475    0.0000 C   0  0  0  0  0  0  0  0  0  0  0  0
   12.1608    5.5169    0.0000 C   0  0  0  0  0  0  0  0  0  0  0  0
   10.7684    5.6633    0.0000 N   0  0  0  0  0  0  0  0  0  0  0  0
   13.7308    3.5781    0.0000 C   0  0  0  0  0  0  0  0  0  0  0  0
   14.8634    4.4010    0.0000 N   0  0  0  0  0  0  0  0  0  0  0  0
   16.1424    3.8315    0.0000 C   0  0  0  0  0  0  0  0  0  0  0  0
   17.2750    4.6544    0.0000 C   0  0  0  0  0  0  0  0  0  0  0  0
   17.1287    6.0468    0.0000 O   0  0  0  0  0  0  0  0  0  0  0  0
   15.8497    6.6162    0.0000 C   0  0  0  0  0  0  0  0  0  0  0  0
   14.7171    5.7933    0.0000 C   0  0  0  0  0  0  0  0  0  0  0  0
  1  2  2  0  0  0  0
  2  3  1  0  0  0  0
  3  4  2  0  0  0  0
  4  5  1  0  0  0  0
  5  6  2  0  0  0  0
  6  1  1  0  0  0  0
  4  7  1  0  0  0  0
  7  8  1  0  0  0  0
  8  9  1  0  0  0  0
  9  5  1  0  0  0  0
  1 10  1  0  0  0  0
 10 11  1  0  0  0  0
  9 12  2  0  0  0  0
  8 13  2  0  0  0  0
 12 14  1  0  0  0  0
 11 15  1  0  0  0  0
 15 16  1  0  0  0  0
 16 17  1  0  0  0  0
 17 18  1  0  0  0  0
 18 11  1  0  0  0  0
 15 19  2  0  0  0  0
 18 20  2  0  0  0  0
 14 21  2  0  0  0  0
 21 22  1  0  0  0  0
 22 23  2  0  0  0  0
 23 24  1  0  0  0  0
 24 14  1  0  0  0  0
 22 25  1  0  0  0  0
 25 26  1  0  0  0  0
 26 27  1  0  0  0  0
 27 28  1  0  0  0  0
 28 29  1  0  0  0  0
 29 30  1  0  0  0  0
 30 31  1  0  0  0  0
 31 26  1  0  0  0  0
M  END
>  <Mol_ID> (617)
3324

>  <Formula> (617)
C22H22N4O4S

>  <MolWeight> (617)
438.49948

>  <Cat> (617)
S8404

>  <Name> (617)
S49076

>  <Synonyms> (617)
N/A

>  <Target> (617)
c-Met  & FGFR

>  <Form> (617)
Free Base

>  <CAS> (617)
1265965-22-7

>  <URL> (617)
http://www.selleckchem.com/products/s49076.html

$$$$
GSK583.cdx
csChFnd80/05071909292D

 28 31  0  0  0  0  0  0  0  0999 V2000
    3.6373    2.1000    0.0000 C   0  0  0  0  0  0  0  0  0  0  0  0
    3.6373    0.7000    0.0000 C   0  0  0  0  0  0  0  0  0  0  0  0
    4.8497    0.0000    0.0000 C   0  0  0  0  0  0  0  0  0  0  0  0
    6.0622    0.7000    0.0000 C   0  0  0  0  0  0  0  0  0  0  0  0
    6.0622    2.1000    0.0000 C   0  0  0  0  0  0  0  0  0  0  0  0
    4.8497    2.8000    0.0000 C   0  0  0  0  0  0  0  0  0  0  0  0
    7.2746    0.0000    0.0000 N   0  0  0  0  0  0  0  0  0  0  0  0
    8.4870    0.7000    0.0000 C   0  0  0  0  0  0  0  0  0  0  0  0
    8.4870    2.1000    0.0000 C   0  0  0  0  0  0  0  0  0  0  0  0
    7.2746    2.8000    0.0000 C   0  0  0  0  0  0  0  0  0  0  0  0
    2.4249    2.8000    0.0000 S   0  0  0  0  0  0  0  0  0  0  0  0
    1.2124    2.1000    0.0000 C   0  0  0  0  0  0  0  0  0  0  0  0
    3.6373    3.5000    0.0000 O   0  0  0  0  0  0  0  0  0  0  0  0
    1.2124    3.5000    0.0000 O   0  0  0  0  0  0  0  0  0  0  0  0
    0.0000    2.8000    0.0000 C   0  0  0  0  0  0  0  0  0  0  0  0
    1.2124    0.7000    0.0000 C   0  0  0  0  0  0  0  0  0  0  0  0
    0.0000    1.4000    0.0000 C   0  0  0  0  0  0  0  0  0  0  0  0
    7.2746    4.2000    0.0000 N   0  0  0  0  0  0  0  0  0  0  0  0
    8.4870    4.9000    0.0000 C   0  0  0  0  0  0  0  0  0  0  0  0
    9.7660    4.3306    0.0000 C   0  0  0  0  0  0  0  0  0  0  0  0
   10.7028    5.3710    0.0000 C   0  0  0  0  0  0  0  0  0  0  0  0
   10.0028    6.5834    0.0000 N   0  0  0  0  0  0  0  0  0  0  0  0
    8.6334    6.2923    0.0000 N   0  0  0  0  0  0  0  0  0  0  0  0
   10.1986    2.9991    0.0000 C   0  0  0  0  0  0  0  0  0  0  0  0
   11.5680    2.7080    0.0000 C   0  0  0  0  0  0  0  0  0  0  0  0
   12.5048    3.7484    0.0000 C   0  0  0  0  0  0  0  0  0  0  0  0
   12.0722    5.0799    0.0000 C   0  0  0  0  0  0  0  0  0  0  0  0
   12.0007    1.3765    0.0000 F   0  0  0  0  0  0  0  0  0  0  0  0
  1  2  2  0  0  0  0
  2  3  1  0  0  0  0
  3  4  2  0  0  0  0
  4  5  1  0  0  0  0
  5  6  2  0  0  0  0
  6  1  1  0  0  0  0
  4  7  1  0  0  0  0
  7  8  2  0  0  0  0
  8  9  1  0  0  0  0
  9 10  2  0  0  0  0
 10  5  1  0  0  0  0
  1 11  1  0  0  0  0
 11 12  1  0  0  0  0
 11 13  2  0  0  0  0
 11 14  2  0  0  0  0
 12 15  1  0  0  0  0
 12 16  1  0  0  0  0
 12 17  1  0  0  0  0
 10 18  1  0  0  0  0
 18 19  1  0  0  0  0
 19 20  1  0  0  0  0
 20 21  2  0  0  0  0
 21 22  1  0  0  0  0
 22 23  1  0  0  0  0
 23 19  2  0  0  0  0
 20 24  1  0  0  0  0
 24 25  2  0  0  0  0
 25 26  1  0  0  0  0
 26 27  2  0  0  0  0
 27 21  1  0  0  0  0
 25 28  1  0  0  0  0
M  END
>  <Mol_ID> (618)
3326

>  <Formula> (618)
C20H19FN4O2S

>  <MolWeight> (618)
398.4538632

>  <Cat> (618)
S8261

>  <Name> (618)
GSK583

>  <Synonyms> (618)
N/A

>  <Target> (618)
NF-B

>  <Form> (618)
Free Base

>  <CAS> (618)
1346547-00-9

>  <URL> (618)
http://www.selleckchem.com/products/gsk583.html

$$$$
ARQ 092.cdx
csChFnd80/05071909292D

 34 38  0  0  0  0  0  0  0  0999 V2000
    3.6331    8.9134    0.0000 C   0  0  0  0  0  0  0  0  0  0  0  0
    3.6331    7.5134    0.0000 C   0  0  0  0  0  0  0  0  0  0  0  0
    4.8455    6.8134    0.0000 N   0  0  0  0  0  0  0  0  0  0  0  0
    6.0580    7.5134    0.0000 C   0  0  0  0  0  0  0  0  0  0  0  0
    6.0580    8.9134    0.0000 C   0  0  0  0  0  0  0  0  0  0  0  0
    4.8455    9.6134    0.0000 C   0  0  0  0  0  0  0  0  0  0  0  0
    7.3894    7.0808    0.0000 N   0  0  0  0  0  0  0  0  0  0  0  0
    8.2123    8.2134    0.0000 C   0  0  0  0  0  0  0  0  0  0  0  0
    7.3894    9.3460    0.0000 N   0  0  0  0  0  0  0  0  0  0  0  0
    9.6075    8.2134    0.0000 C   0  0  0  0  0  0  0  0  0  0  0  0
   10.3075    7.0010    0.0000 C   0  0  0  0  0  0  0  0  0  0  0  0
   11.7075    7.0010    0.0000 C   0  0  0  0  0  0  0  0  0  0  0  0
   12.4075    8.2134    0.0000 C   0  0  0  0  0  0  0  0  0  0  0  0
   11.7075    9.4258    0.0000 N   0  0  0  0  0  0  0  0  0  0  0  0
   10.3075    9.4258    0.0000 C   0  0  0  0  0  0  0  0  0  0  0  0
    2.4249    6.8158    0.0000 C   0  0  0  0  0  0  0  0  0  0  0  0
    7.8206    5.7539    0.0000 C   0  0  0  0  0  0  0  0  0  0  0  0
    6.8838    4.7135    0.0000 C   0  0  0  0  0  0  0  0  0  0  0  0
    7.3164    3.3820    0.0000 C   0  0  0  0  0  0  0  0  0  0  0  0
    8.6858    3.0910    0.0000 C   0  0  0  0  0  0  0  0  0  0  0  0
    9.6226    4.1314    0.0000 C   0  0  0  0  0  0  0  0  0  0  0  0
    9.1900    5.4628    0.0000 C   0  0  0  0  0  0  0  0  0  0  0  0
    9.1169    1.7641    0.0000 C   0  0  0  0  0  0  0  0  0  0  0  0
   10.4438    2.1952    0.0000 N   0  0  0  0  0  0  0  0  0  0  0  0
    7.7855    1.3315    0.0000 C   0  0  0  0  0  0  0  0  0  0  0  0
    8.2181    0.0000    0.0000 C   0  0  0  0  0  0  0  0  0  0  0  0
    9.5496    0.4326    0.0000 C   0  0  0  0  0  0  0  0  0  0  0  0
    9.6099   10.6341    0.0000 N   0  0  0  0  0  0  0  0  0  0  0  0
    1.2124    7.5158    0.0000 C   0  0  0  0  0  0  0  0  0  0  0  0
    0.0000    6.8158    0.0000 C   0  0  0  0  0  0  0  0  0  0  0  0
    0.0000    5.4158    0.0000 C   0  0  0  0  0  0  0  0  0  0  0  0
    1.2124    4.7158    0.0000 C   0  0  0  0  0  0  0  0  0  0  0  0
    2.4249    5.4158    0.0000 C   0  0  0  0  0  0  0  0  0  0  0  0
    4.0161    1.8139    0.0000 Cl  0  0  0  0  0  0  0  0  0  0  0  0
  1  2  2  0  0  0  0
  2  3  1  0  0  0  0
  3  4  2  0  0  0  0
  4  5  1  0  0  0  0
  5  6  2  0  0  0  0
  6  1  1  0  0  0  0
  4  7  1  0  0  0  0
  7  8  1  0  0  0  0
  8  9  2  0  0  0  0
  9  5  1  0  0  0  0
  8 10  1  0  0  0  0
 10 11  2  0  0  0  0
 11 12  1  0  0  0  0
 12 13  2  0  0  0  0
 13 14  1  0  0  0  0
 14 15  2  0  0  0  0
 15 10  1  0  0  0  0
  2 16  1  0  0  0  0
  7 17  1  0  0  0  0
 17 18  2  0  0  0  0
 18 19  1  0  0  0  0
 19 20  2  0  0  0  0
 20 21  1  0  0  0  0
 21 22  2  0  0  0  0
 22 17  1  0  0  0  0
 20 23  1  0  0  0  0
 23 24  1  0  0  0  0
 23 25  1  0  0  0  0
 25 26  1  0  0  0  0
 26 27  1  0  0  0  0
 27 23  1  0  0  0  0
 15 28  1  0  0  0  0
 16 29  2  0  0  0  0
 29 30  1  0  0  0  0
 30 31  2  0  0  0  0
 31 32  1  0  0  0  0
 32 33  2  0  0  0  0
 33 16  1  0  0  0  0
M  END
>  <Mol_ID> (619)
3329

>  <Formula> (619)
C27H25ClN6

>  <MolWeight> (619)
468.9806

>  <Cat> (619)
S8339

>  <Name> (619)
Miransertib (ARQ 092)HCl

>  <Synonyms> (619)
Miransertib

>  <Target> (619)
Akt

>  <Form> (619)
hydrochloride

>  <CAS> (619)
1313883-00-9

>  <URL> (619)
http://www.selleckchem.com/products/arq-092.html

$$$$
VPS34 inhibitor 1.cdx
csChFnd80/05071909292D

 29 32  0  0  0  0  0  0  0  0999 V2000
    0.0000    6.3000    0.0000 C   0  0  0  0  0  0  0  0  0  0  0  0
    0.0000    4.9000    0.0000 N   0  0  0  0  0  0  0  0  0  0  0  0
    1.2124    4.2000    0.0000 C   0  0  0  0  0  0  0  0  0  0  0  0
    2.4249    4.9000    0.0000 N   0  0  0  0  0  0  0  0  0  0  0  0
    2.4249    6.3000    0.0000 C   0  0  0  0  0  0  0  0  0  0  0  0
    1.2124    7.0000    0.0000 C   0  0  0  0  0  0  0  0  0  0  0  0
    3.6373    7.0000    0.0000 C   0  0  0  0  0  0  0  0  0  0  0  0
    1.2124    2.8000    0.0000 N   0  0  0  0  0  0  0  0  0  0  0  0
    2.4249    2.1000    0.0000 C   0  0  0  0  0  0  0  0  0  0  0  0
    2.4249    0.7000    0.0000 C   0  0  0  0  0  0  0  0  0  0  0  0
    3.6373    0.0000    0.0000 C   0  0  0  0  0  0  0  0  0  0  0  0
    4.8497    0.7000    0.0000 N   0  0  0  0  0  0  0  0  0  0  0  0
    4.8497    2.1000    0.0000 C   0  0  0  0  0  0  0  0  0  0  0  0
    3.6373    2.8000    0.0000 C   0  0  0  0  0  0  0  0  0  0  0  0
    4.8497    6.3000    0.0000 C   0  0  0  0  0  0  0  0  0  0  0  0
    6.0622    7.0000    0.0000 N   0  0  0  0  0  0  0  0  0  0  0  0
    6.0622    8.4000    0.0000 C   0  0  0  0  0  0  0  0  0  0  0  0
    4.8497    9.1000    0.0000 N   0  0  0  0  0  0  0  0  0  0  0  0
    3.6373    8.4000    0.0000 C   0  0  0  0  0  0  0  0  0  0  0  0
    2.4249    9.1000    0.0000 C   0  0  0  0  0  0  0  0  0  0  0  0
    2.4249   10.5000    0.0000 C   0  0  0  0  0  0  0  0  0  0  0  0
    7.2746    9.1000    0.0000 N   0  0  0  0  0  0  0  0  0  0  0  0
    8.4870    8.4000    0.0000 C   0  0  0  0  0  0  0  0  0  0  0  0
    9.6995    9.1000    0.0000 C   0  0  0  0  0  0  0  0  0  0  0  0
   10.9119    8.4000    0.0000 O   0  0  0  0  0  0  0  0  0  0  0  0
    3.1249   11.7124    0.0000 C   0  0  0  0  0  0  0  0  0  0  0  0
    1.7249   11.7124    0.0000 C   0  0  0  0  0  0  0  0  0  0  0  0
    8.9995   10.3124    0.0000 C   0  0  0  0  0  0  0  0  0  0  0  0
   10.3995   10.3124    0.0000 C   0  0  0  0  0  0  0  0  0  0  0  0
  1  2  2  0  0  0  0
  2  3  1  0  0  0  0
  3  4  2  0  0  0  0
  4  5  1  0  0  0  0
  5  6  2  0  0  0  0
  6  1  1  0  0  0  0
  5  7  1  0  0  0  0
  3  8  1  0  0  0  0
  8  9  1  0  0  0  0
  9 10  2  0  0  0  0
 10 11  1  0  0  0  0
 11 12  2  0  0  0  0
 12 13  1  0  0  0  0
 13 14  2  0  0  0  0
 14  9  1  0  0  0  0
  7 15  2  0  0  0  0
 15 16  1  0  0  0  0
 16 17  2  0  0  0  0
 17 18  1  0  0  0  0
 18 19  2  0  0  0  0
 19  7  1  0  0  0  0
 19 20  1  0  0  0  0
 20 21  1  0  0  0  0
 17 22  1  0  0  0  0
 22 23  1  0  0  0  0
 23 24  1  0  0  0  0
 24 25  1  0  0  0  0
 21 26  1  0  0  0  0
 26 27  1  0  0  0  0
 27 21  1  0  0  0  0
 24 28  1  0  0  0  0
 24 29  1  0  0  0  0
M  END
>  <Mol_ID> (620)
3331

>  <Formula> (620)
C21H25N7O

>  <MolWeight> (620)
391.4695

>  <Cat> (620)
S8456

>  <Name> (620)
VPS34 inhibitor 1 (Compound 19, PIK-III anal

>  <Synonyms> (620)
N/A

>  <Target> (620)
PI3K

>  <Form> (620)
Free Base

>  <CAS> (620)
1383716-46-8

>  <URL> (620)
http://www.selleckchem.com/products/vps34-inhibitor-1.html

$$$$
OTS514.cdx
csChFnd80/05071909292D

 27 29  0  0  0  0  0  0  0  0999 V2000
    4.2000    3.6373    0.0000 C   0  0  0  0  0  0  0  0  0  0  0  0
    5.6000    3.6373    0.0000 C   0  0  0  0  0  0  0  0  0  0  0  0
    6.3000    4.8497    0.0000 C   0  0  0  0  0  0  0  0  0  0  0  0
    5.6000    6.0622    0.0000 C   0  0  0  0  0  0  0  0  0  0  0  0
    4.2000    6.0622    0.0000 C   0  0  0  0  0  0  0  0  0  0  0  0
    3.5000    4.8497    0.0000 C   0  0  0  0  0  0  0  0  0  0  0  0
    2.1000    4.8497    0.0000 C   0  0  2  0  0  0  0  0  0  0  0  0
    1.4000    3.6373    0.0000 C   0  0  0  0  0  0  0  0  0  0  0  0
    1.4000    6.0622    0.0000 C   0  0  0  0  0  0  0  0  0  0  0  0
    0.0000    3.6373    0.0000 N   0  0  0  0  0  0  0  0  0  0  0  0
    7.7000    4.8497    0.0000 C   0  0  0  0  0  0  0  0  0  0  0  0
    8.4000    3.6373    0.0000 C   0  0  0  0  0  0  0  0  0  0  0  0
    9.8000    3.6373    0.0000 C   0  0  0  0  0  0  0  0  0  0  0  0
   10.5000    4.8497    0.0000 C   0  0  0  0  0  0  0  0  0  0  0  0
    9.8000    6.0622    0.0000 C   0  0  0  0  0  0  0  0  0  0  0  0
    8.4000    6.0622    0.0000 C   0  0  0  0  0  0  0  0  0  0  0  0
    7.7000    7.2746    0.0000 O   0  0  0  0  0  0  0  0  0  0  0  0
   11.9000    4.8497    0.0000 C   0  0  0  0  0  0  0  0  0  0  0  0
    7.7000    2.4249    0.0000 C   0  0  0  0  0  0  0  0  0  0  0  0
    8.4000    1.2124    0.0000 C   0  0  0  0  0  0  0  0  0  0  0  0
    9.8000    1.2124    0.0000 C   0  0  0  0  0  0  0  0  0  0  0  0
   10.5000    2.4249    0.0000 N   0  0  0  0  0  0  0  0  0  0  0  0
    6.3306    2.1338    0.0000 C   0  0  0  0  0  0  0  0  0  0  0  0
    6.1843    0.7415    0.0000 C   0  0  0  0  0  0  0  0  0  0  0  0
    7.4632    0.1720    0.0000 S   0  0  0  0  0  0  0  0  0  0  0  0
   10.5000    0.0000    0.0000 O   0  0  0  0  0  0  0  0  0  0  0  0
    2.4508    1.4747    0.0000 Cl  0  0  0  0  0  0  0  0  0  0  0  0
  1  2  2  0  0  0  0
  2  3  1  0  0  0  0
  3  4  2  0  0  0  0
  4  5  1  0  0  0  0
  5  6  2  0  0  0  0
  6  1  1  0  0  0  0
  6  7  1  0  0  0  0
  7  8  1  0  0  0  0
  7  9  1  6  0  0  0
  8 10  1  0  0  0  0
  3 11  1  0  0  0  0
 11 12  2  0  0  0  0
 12 13  1  0  0  0  0
 13 14  2  0  0  0  0
 14 15  1  0  0  0  0
 15 16  2  0  0  0  0
 16 11  1  0  0  0  0
 16 17  1  0  0  0  0
 14 18  1  0  0  0  0
 12 19  1  0  0  0  0
 19 20  2  0  0  0  0
 20 21  1  0  0  0  0
 21 22  1  0  0  0  0
 22 13  1  0  0  0  0
 19 23  1  0  0  0  0
 23 24  2  0  0  0  0
 24 25  1  0  0  0  0
 25 20  1  0  0  0  0
 21 26  2  0  0  0  0
M  END
>  <Mol_ID> (621)
3335

>  <Formula> (621)
C21H21ClN2O2S

>  <MolWeight> (621)
400.92164

>  <Cat> (621)
S7652

>  <Name> (621)
OTS514 hydrochloride

>  <Synonyms> (621)
N/A

>  <Target> (621)
TOPK

>  <Form> (621)
hydrochloride

>  <CAS> (621)
1338540-63-8(free base)

>  <URL> (621)
http://www.selleckchem.com/products/ots514.html

$$$$
SAR-020106.cdx
csChFnd80/05071909292D

 27 29  0  0  0  0  0  0  0  0999 V2000
    2.4249    3.5000    0.0000 C   0  0  0  0  0  0  0  0  0  0  0  0
    2.4249    2.1000    0.0000 C   0  0  0  0  0  0  0  0  0  0  0  0
    3.6373    1.4000    0.0000 N   0  0  0  0  0  0  0  0  0  0  0  0
    4.8497    2.1000    0.0000 C   0  0  0  0  0  0  0  0  0  0  0  0
    4.8497    3.5000    0.0000 C   0  0  0  0  0  0  0  0  0  0  0  0
    3.6373    4.2000    0.0000 N   0  0  0  0  0  0  0  0  0  0  0  0
    6.0622    4.2000    0.0000 N   0  0  0  0  0  0  0  0  0  0  0  0
    7.2746    3.5000    0.0000 C   0  0  0  0  0  0  0  0  0  0  0  0
    7.2746    2.1000    0.0000 N   0  0  0  0  0  0  0  0  0  0  0  0
    8.4870    1.4000    0.0000 C   0  0  0  0  0  0  0  0  0  0  0  0
    9.6995    2.1000    0.0000 C   0  0  0  0  0  0  0  0  0  0  0  0
    9.6995    3.5000    0.0000 C   0  0  0  0  0  0  0  0  0  0  0  0
    8.4870    4.2000    0.0000 C   0  0  0  0  0  0  0  0  0  0  0  0
   10.9119    1.4000    0.0000 C   0  0  0  0  0  0  0  0  0  0  0  0
   12.1244    2.1000    0.0000 C   0  0  0  0  0  0  0  0  0  0  0  0
   12.1244    3.5000    0.0000 C   0  0  0  0  0  0  0  0  0  0  0  0
   10.9119    4.2000    0.0000 C   0  0  0  0  0  0  0  0  0  0  0  0
    1.2124    4.2000    0.0000 O   0  0  0  0  0  0  0  0  0  0  0  0
    1.2124    5.6000    0.0000 C   0  0  2  0  0  0  0  0  0  0  0  0
    0.0000    6.3000    0.0000 C   0  0  0  0  0  0  0  0  0  0  0  0
    2.4249    6.3000    0.0000 C   0  0  0  0  0  0  0  0  0  0  0  0
    2.4249    7.7000    0.0000 N   0  0  0  0  0  0  0  0  0  0  0  0
    1.2124    8.4000    0.0000 C   0  0  0  0  0  0  0  0  0  0  0  0
    3.6373    8.4000    0.0000 C   0  0  0  0  0  0  0  0  0  0  0  0
    1.2124    1.4000    0.0000 C   0  0  0  0  0  0  0  0  0  0  0  0
   10.9119    0.0000    0.0000 Cl  0  0  0  0  0  0  0  0  0  0  0  0
    0.0014    0.7000    0.0000 N   0  0  0  0  0  0  0  0  0  0  0  0
  1  2  2  0  0  0  0
  2  3  1  0  0  0  0
  3  4  2  0  0  0  0
  4  5  1  0  0  0  0
  5  6  2  0  0  0  0
  6  1  1  0  0  0  0
  5  7  1  0  0  0  0
  7  8  1  0  0  0  0
  8  9  2  0  0  0  0
  9 10  1  0  0  0  0
 10 11  2  0  0  0  0
 11 12  1  0  0  0  0
 12 13  2  0  0  0  0
 13  8  1  0  0  0  0
 11 14  1  0  0  0  0
 14 15  2  0  0  0  0
 15 16  1  0  0  0  0
 16 17  2  0  0  0  0
 17 12  1  0  0  0  0
  1 18  1  0  0  0  0
 18 19  1  0  0  0  0
 19 20  1  6  0  0  0
 19 21  1  0  0  0  0
 21 22  1  0  0  0  0
 22 23  1  0  0  0  0
 22 24  1  0  0  0  0
  2 25  1  0  0  0  0
 14 26  1  0  0  0  0
 25 27  3  0  0  0  0
M  END
>  <Mol_ID> (622)
3336

>  <Formula> (622)
C19H19ClN6O

>  <MolWeight> (622)
382.84676

>  <Cat> (622)
S7740

>  <Name> (622)
SAR-020106

>  <Synonyms> (622)
N/A

>  <Target> (622)
Chk

>  <Form> (622)
Free Base

>  <CAS> (622)
1184843-57-9

>  <URL> (622)
http://www.selleckchem.com/products/sar-020106.html

$$$$
S8275-eFT-508.cdx
csChFnd80/05071909292D

 25 28  0  0  0  0  0  0  0  0999 V2000
    6.0622    4.4956    0.0000 C   0  0  0  0  0  0  0  0  0  0  0  0
    6.0622    3.0956    0.0000 C   0  0  0  0  0  0  0  0  0  0  0  0
    7.2746    2.3956    0.0000 C   0  0  0  0  0  0  0  0  0  0  0  0
    8.4870    3.0956    0.0000 N   0  0  0  0  0  0  0  0  0  0  0  0
    8.4870    4.4956    0.0000 C   0  0  0  0  0  0  0  0  0  0  0  0
    7.2746    5.1956    0.0000 C   0  0  0  0  0  0  0  0  0  0  0  0
    9.8185    2.6630    0.0000 C   0  0  0  0  0  0  0  0  0  0  0  0
   10.6414    3.7956    0.0000 N   0  0  0  0  0  0  0  0  0  0  0  0
    9.8185    4.9282    0.0000 C   0  0  0  0  0  0  0  0  0  0  0  0
    8.8817    1.6226    0.0000 C   0  0  0  0  0  0  0  0  0  0  0  0
    9.3144    0.2911    0.0000 C   0  0  0  0  0  0  0  0  0  0  0  0
   10.6838    0.0000    0.0000 C   0  0  0  0  0  0  0  0  0  0  0  0
   11.6206    1.0404    0.0000 C   0  0  0  0  0  0  0  0  0  0  0  0
   11.1879    2.3719    0.0000 C   0  0  0  0  0  0  0  0  0  0  0  0
    4.8497    2.3956    0.0000 N   0  0  0  0  0  0  0  0  0  0  0  0
    3.6373    3.0956    0.0000 C   0  0  0  0  0  0  0  0  0  0  0  0
    3.6373    4.4956    0.0000 N   0  0  0  0  0  0  0  0  0  0  0  0
    2.4249    5.1956    0.0000 C   0  0  0  0  0  0  0  0  0  0  0  0
    1.2124    4.4956    0.0000 N   0  0  0  0  0  0  0  0  0  0  0  0
    1.2124    3.0956    0.0000 C   0  0  0  0  0  0  0  0  0  0  0  0
    2.4249    2.3956    0.0000 C   0  0  0  0  0  0  0  0  0  0  0  0
    0.0000    2.3956    0.0000 N   0  0  0  0  0  0  0  0  0  0  0  0
    7.2746    0.9956    0.0000 O   0  0  0  0  0  0  0  0  0  0  0  0
   10.2512    6.2597    0.0000 O   0  0  0  0  0  0  0  0  0  0  0  0
    7.2746    6.5956    0.0000 C   0  0  0  0  0  0  0  0  0  0  0  0
  1  2  2  0  0  0  0
  2  3  1  0  0  0  0
  3  4  1  0  0  0  0
  4  5  1  0  0  0  0
  5  6  2  0  0  0  0
  6  1  1  0  0  0  0
  4  7  1  0  0  0  0
  7  8  1  0  0  0  0
  8  9  1  0  0  0  0
  9  5  1  0  0  0  0
  7 10  1  0  0  0  0
 10 11  1  0  0  0  0
 11 12  1  0  0  0  0
 12 13  1  0  0  0  0
 13 14  1  0  0  0  0
 14  7  1  0  0  0  0
  2 15  1  0  0  0  0
 15 16  1  0  0  0  0
 16 17  2  0  0  0  0
 17 18  1  0  0  0  0
 18 19  2  0  0  0  0
 19 20  1  0  0  0  0
 20 21  2  0  0  0  0
 21 16  1  0  0  0  0
 20 22  1  0  0  0  0
  3 23  2  0  0  0  0
  9 24  2  0  0  0  0
  6 25  1  0  0  0  0
M  END
>  <Mol_ID> (623)
3341

>  <Formula> (623)
C17H20N6O2

>  <MolWeight> (623)
340.3797

>  <Cat> (623)
S8275

>  <Name> (623)
eFT-508 (eFT508)

>  <Synonyms> (623)
N/A

>  <Target> (623)
MNK

>  <Form> (623)
Free Base

>  <CAS> (623)
1849590-01-7

>  <URL> (623)
http://www.selleckchem.com/products/eft-508.html

$$$$
Urokinase inhibitor 1.cdx
csChFnd80/05071909292D

 26 26  0  0  0  0  0  0  0  0999 V2000
    6.0622    3.5000    0.0000 C   0  0  0  0  0  0  0  0  0  0  0  0
    6.0622    2.1000    0.0000 C   0  0  0  0  0  0  0  0  0  0  0  0
    7.2746    1.4000    0.0000 C   0  0  0  0  0  0  0  0  0  0  0  0
    8.4871    2.1000    0.0000 C   0  0  0  0  0  0  0  0  0  0  0  0
    8.4871    3.5000    0.0000 C   0  0  0  0  0  0  0  0  0  0  0  0
    7.2746    4.2000    0.0000 C   0  0  0  0  0  0  0  0  0  0  0  0
    9.6995    1.4000    0.0000 C   0  0  0  0  0  0  0  0  0  0  0  0
   10.9119    2.1000    0.0000 C   0  0  0  0  0  0  0  0  0  0  0  0
   10.9119    3.5000    0.0000 N   0  0  0  0  0  0  0  0  0  0  0  0
    9.6995    4.2000    0.0000 C   0  0  0  0  0  0  0  0  0  0  0  0
    9.6995    5.6000    0.0000 N   0  0  0  0  0  0  0  0  0  0  0  0
    9.6995    0.0000    0.0000 Cl  0  0  0  0  0  0  0  0  0  0  0  0
    4.8497    4.2000    0.0000 S   0  0  0  0  0  0  0  0  0  0  0  0
    5.5497    5.4124    0.0000 O   0  0  0  0  0  0  0  0  0  0  0  0
    4.1497    2.9876    0.0000 O   0  0  0  0  0  0  0  0  0  0  0  0
    3.6373    4.9000    0.0000 N   0  0  0  0  0  0  0  0  0  0  0  0
    2.4249    4.2000    0.0000 C   0  0  0  0  0  0  0  0  0  0  0  0
    1.2124    4.9000    0.0000 C   0  0  0  0  0  0  0  0  0  0  0  0
    1.2124    6.3000    0.0000 O   0  0  0  0  0  0  0  0  0  0  0  0
    0.0000    4.2000    0.0000 O   0  0  0  0  0  0  0  0  0  0  0  0
    1.4349    3.2101    0.0000 C   0  0  0  0  0  0  0  0  0  0  0  0
    3.4148    3.2101    0.0000 C   0  0  0  0  0  0  0  0  0  0  0  0
   10.9119    6.3000    0.0000 C   0  0  0  0  0  0  0  0  0  0  0  0
   12.1244    5.6000    0.0000 N   0  0  0  0  0  0  0  0  0  0  0  0
   10.9119    7.7000    0.0000 N   0  0  0  0  0  0  0  0  0  0  0  0
   13.6356    1.3566    0.0000 Cl  0  0  0  0  0  0  0  0  0  0  0  0
  1  2  1  0  0  0  0
  2  3  2  0  0  0  0
  3  4  1  0  0  0  0
  4  5  2  0  0  0  0
  5  6  1  0  0  0  0
  6  1  2  0  0  0  0
  4  7  1  0  0  0  0
  7  8  2  0  0  0  0
  8  9  1  0  0  0  0
  9 10  2  0  0  0  0
 10  5  1  0  0  0  0
 10 11  1  0  0  0  0
  7 12  1  0  0  0  0
  1 13  1  0  0  0  0
 13 14  2  0  0  0  0
 13 15  2  0  0  0  0
 13 16  1  0  0  0  0
 16 17  1  0  0  0  0
 17 18  1  0  0  0  0
 18 19  2  0  0  0  0
 18 20  1  0  0  0  0
 17 21  1  0  0  0  0
 17 22  1  0  0  0  0
 11 23  1  0  0  0  0
 23 24  1  0  0  0  0
 23 25  2  0  0  0  0
M  END
>  <Mol_ID> (624)
3342

>  <Formula> (624)
C14H17Cl2N5O4S

>  <MolWeight> (624)
422.28688

>  <Cat> (624)
S8457

>  <Name> (624)
UK-371804 HCl

>  <Synonyms> (624)
UK-371804 HCl

>  <Target> (624)
Serine Protease

>  <Form> (624)
hydrochloride

>  <CAS> (624)
256476-36-5

>  <URL> (624)
http://www.selleckchem.com/products/uk-371804-hcl.html

$$$$
S7743-CCT196969.cdx
csChFnd80/05071909292D

 38 42  0  0  0  0  0  0  0  0999 V2000
    0.0000    2.1000    0.0000 C   0  0  0  0  0  0  0  0  0  0  0  0
    0.0000    0.7000    0.0000 C   0  0  0  0  0  0  0  0  0  0  0  0
    1.2124    0.0000    0.0000 N   0  0  0  0  0  0  0  0  0  0  0  0
    2.4249    0.7000    0.0000 C   0  0  0  0  0  0  0  0  0  0  0  0
    2.4249    2.1000    0.0000 C   0  0  0  0  0  0  0  0  0  0  0  0
    1.2124    2.8000    0.0000 C   0  0  0  0  0  0  0  0  0  0  0  0
    3.6373    0.0000    0.0000 N   0  0  0  0  0  0  0  0  0  0  0  0
    4.8497    0.7000    0.0000 C   0  0  0  0  0  0  0  0  0  0  0  0
    4.8497    2.1000    0.0000 C   0  0  0  0  0  0  0  0  0  0  0  0
    3.6373    2.8000    0.0000 N   0  0  0  0  0  0  0  0  0  0  0  0
    6.0622    0.0000    0.0000 O   0  0  0  0  0  0  0  0  0  0  0  0
    1.2124    4.2000    0.0000 O   0  0  0  0  0  0  0  0  0  0  0  0
    2.4249    4.9000    0.0000 C   0  0  0  0  0  0  0  0  0  0  0  0
    3.6373    4.2000    0.0000 C   0  0  0  0  0  0  0  0  0  0  0  0
    4.8497    4.9000    0.0000 C   0  0  0  0  0  0  0  0  0  0  0  0
    4.8497    6.3000    0.0000 C   0  0  0  0  0  0  0  0  0  0  0  0
    3.6373    7.0000    0.0000 C   0  0  0  0  0  0  0  0  0  0  0  0
    2.4249    6.3000    0.0000 C   0  0  0  0  0  0  0  0  0  0  0  0
    3.6373    8.4000    0.0000 F   0  0  0  0  0  0  0  0  0  0  0  0
    6.0622    7.0000    0.0000 N   0  0  0  0  0  0  0  0  0  0  0  0
    7.2746    6.3000    0.0000 C   0  0  0  0  0  0  0  0  0  0  0  0
    8.4870    7.0000    0.0000 N   0  0  0  0  0  0  0  0  0  0  0  0
    9.6995    6.3000    0.0000 C   0  0  0  0  0  0  0  0  0  0  0  0
   10.0957    4.9572    0.0000 N   0  0  0  0  0  0  0  0  0  0  0  0
   11.4952    4.9191    0.0000 N   0  0  0  0  0  0  0  0  0  0  0  0
   11.9639    6.2383    0.0000 C   0  0  0  0  0  0  0  0  0  0  0  0
   10.8541    7.0918    0.0000 C   0  0  0  0  0  0  0  0  0  0  0  0
    9.2423    3.8474    0.0000 C   0  0  0  0  0  0  0  0  0  0  0  0
   13.3067    6.6345    0.0000 C   0  0  0  0  0  0  0  0  0  0  0  0
   14.3212    5.6698    0.0000 C   0  0  0  0  0  0  0  0  0  0  0  0
   13.6349    7.9955    0.0000 C   0  0  0  0  0  0  0  0  0  0  0  0
   14.6494    7.0307    0.0000 C   0  0  0  0  0  0  0  0  0  0  0  0
    7.8544    4.0316    0.0000 C   0  0  0  0  0  0  0  0  0  0  0  0
    7.0010    2.9218    0.0000 C   0  0  0  0  0  0  0  0  0  0  0  0
    7.5354    1.6278    0.0000 C   0  0  0  0  0  0  0  0  0  0  0  0
    8.9232    1.4436    0.0000 C   0  0  0  0  0  0  0  0  0  0  0  0
    9.7766    2.5534    0.0000 C   0  0  0  0  0  0  0  0  0  0  0  0
    7.2746    4.9000    0.0000 O   0  0  0  0  0  0  0  0  0  0  0  0
  1  2  2  0  0  0  0
  2  3  1  0  0  0  0
  3  4  2  0  0  0  0
  4  5  1  0  0  0  0
  5  6  2  0  0  0  0
  6  1  1  0  0  0  0
  4  7  1  0  0  0  0
  7  8  1  0  0  0  0
  8  9  1  0  0  0  0
  9 10  2  0  0  0  0
 10  5  1  0  0  0  0
  8 11  2  0  0  0  0
  6 12  1  0  0  0  0
 12 13  1  0  0  0  0
 13 14  2  0  0  0  0
 14 15  1  0  0  0  0
 15 16  2  0  0  0  0
 16 17  1  0  0  0  0
 17 18  2  0  0  0  0
 18 13  1  0  0  0  0
 17 19  1  0  0  0  0
 16 20  1  0  0  0  0
 20 21  1  0  0  0  0
 21 22  1  0  0  0  0
 22 23  1  0  0  0  0
 23 24  1  0  0  0  0
 24 25  1  0  0  0  0
 25 26  2  0  0  0  0
 26 27  1  0  0  0  0
 27 23  2  0  0  0  0
 24 28  1  0  0  0  0
 26 29  1  0  0  0  0
 29 30  1  0  0  0  0
 29 31  1  0  0  0  0
 29 32  1  0  0  0  0
 28 33  2  0  0  0  0
 33 34  1  0  0  0  0
 34 35  2  0  0  0  0
 35 36  1  0  0  0  0
 36 37  2  0  0  0  0
 37 28  1  0  0  0  0
 21 38  2  0  0  0  0
M  END
>  <Mol_ID> (625)
3344

>  <Formula> (625)
C27H24FN7O3

>  <MolWeight> (625)
513.5229632

>  <Cat> (625)
S7743

>  <Name> (625)
CCT196969

>  <Synonyms> (625)
N/A

>  <Target> (625)
Raf

>  <Form> (625)
Free Base

>  <CAS> (625)
1163719-56-9

>  <URL> (625)
http://www.selleckchem.com/products/cct196969.html

$$$$
LY2857785.cdx
csChFnd80/05071909292D

 33 37  0  0  0  0  0  0  0  0999 V2000
    2.4249    6.3000    0.0000 C   0  0  0  0  0  0  0  0  0  0  0  0
    2.4249    4.9000    0.0000 C   0  0  0  0  0  0  0  0  0  0  0  0
    3.6373    4.2000    0.0000 C   0  0  2  0  0  0  0  0  0  0  0  0
    4.8497    4.9000    0.0000 C   0  0  0  0  0  0  0  0  0  0  0  0
    4.8497    6.3000    0.0000 C   0  0  0  0  0  0  0  0  0  0  0  0
    3.6373    7.0000    0.0000 C   0  0  2  0  0  0  0  0  0  0  0  0
    3.6373    8.4000    0.0000 N   0  0  0  0  0  0  0  0  0  0  0  0
    3.6373    2.8000    0.0000 N   0  0  0  0  0  0  0  0  0  0  0  0
    2.4249    2.1000    0.0000 C   0  0  0  0  0  0  0  0  0  0  0  0
    4.8497    9.1000    0.0000 C   0  0  0  0  0  0  0  0  0  0  0  0
    6.0622    8.4000    0.0000 N   0  0  0  0  0  0  0  0  0  0  0  0
    7.2746    9.1000    0.0000 C   0  0  0  0  0  0  0  0  0  0  0  0
    7.2746   10.5000    0.0000 C   0  0  0  0  0  0  0  0  0  0  0  0
    6.0622   11.2000    0.0000 C   0  0  0  0  0  0  0  0  0  0  0  0
    4.8497   10.5000    0.0000 N   0  0  0  0  0  0  0  0  0  0  0  0
    8.4870    8.4000    0.0000 C   0  0  0  0  0  0  0  0  0  0  0  0
    8.4870    7.0000    0.0000 C   0  0  0  0  0  0  0  0  0  0  0  0
    9.6995    6.3000    0.0000 C   0  0  0  0  0  0  0  0  0  0  0  0
   10.9119    7.0000    0.0000 C   0  0  0  0  0  0  0  0  0  0  0  0
   10.9119    8.4000    0.0000 C   0  0  0  0  0  0  0  0  0  0  0  0
    9.6995    9.1000    0.0000 C   0  0  0  0  0  0  0  0  0  0  0  0
    9.9906    4.9306    0.0000 C   0  0  0  0  0  0  0  0  0  0  0  0
   11.3829    4.7843    0.0000 N   0  0  0  0  0  0  0  0  0  0  0  0
   11.9523    6.0632    0.0000 N   0  0  0  0  0  0  0  0  0  0  0  0
   12.0829    3.5718    0.0000 C   0  0  0  0  0  0  0  0  0  0  0  0
    9.0538    3.8902    0.0000 C   0  0  0  0  0  0  0  0  0  0  0  0
    9.4864    2.5587    0.0000 C   0  0  0  0  0  0  0  0  0  0  0  0
    7.6844    4.1813    0.0000 C   0  0  0  0  0  0  0  0  0  0  0  0
    1.2124    2.8000    0.0000 C   0  0  0  0  0  0  0  0  0  0  0  0
    0.0000    2.1000    0.0000 C   0  0  0  0  0  0  0  0  0  0  0  0
    0.0000    0.7000    0.0000 O   0  0  0  0  0  0  0  0  0  0  0  0
    1.2124    0.0000    0.0000 C   0  0  0  0  0  0  0  0  0  0  0  0
    2.4249    0.7000    0.0000 C   0  0  0  0  0  0  0  0  0  0  0  0
  1  2  1  0  0  0  0
  2  3  1  0  0  0  0
  3  4  1  0  0  0  0
  4  5  1  0  0  0  0
  5  6  1  0  0  0  0
  6  1  1  0  0  0  0
  6  7  1  1  0  0  0
  3  8  1  6  0  0  0
  8  9  1  0  0  0  0
  7 10  1  0  0  0  0
 10 11  2  0  0  0  0
 11 12  1  0  0  0  0
 12 13  2  0  0  0  0
 13 14  1  0  0  0  0
 14 15  2  0  0  0  0
 15 10  1  0  0  0  0
 12 16  1  0  0  0  0
 16 17  2  0  0  0  0
 17 18  1  0  0  0  0
 18 19  1  0  0  0  0
 19 20  1  0  0  0  0
 20 21  2  0  0  0  0
 21 16  1  0  0  0  0
 18 22  2  0  0  0  0
 22 23  1  0  0  0  0
 23 24  1  0  0  0  0
 24 19  2  0  0  0  0
 23 25  1  0  0  0  0
 22 26  1  0  0  0  0
 26 27  1  0  0  0  0
 26 28  1  0  0  0  0
  9 29  1  0  0  0  0
 29 30  1  0  0  0  0
 30 31  1  0  0  0  0
 31 32  1  0  0  0  0
 32 33  1  0  0  0  0
 33  9  1  0  0  0  0
M  END
>  <Mol_ID> (626)
3346

>  <Formula> (626)
C26H36N6O

>  <MolWeight> (626)
448.60364

>  <Cat> (626)
S7511

>  <Name> (626)
LY2857785

>  <Synonyms> (626)
N/A

>  <Target> (626)
CDK

>  <Form> (626)
Free Base

>  <CAS> (626)
1619903-54-6

>  <URL> (626)
http://www.selleckchem.com/products/ly2857785.html

$$$$
BAY 1217389.cdx
csChFnd80/05071909292D

 40 44  0  0  0  0  0  0  0  0999 V2000
    9.7098    8.8548    0.0000 N   0  0  0  0  0  0  0  0  0  0  0  0
    9.7170   10.2577    0.0000 C   0  0  0  0  0  0  0  0  0  0  0  0
    8.5138   10.9654    0.0000 C   0  0  0  0  0  0  0  0  0  0  0  0
    7.2871   10.2702    0.0000 C   0  0  0  0  0  0  0  0  0  0  0  0
    7.2759    8.8743    0.0000 C   0  0  0  0  0  0  0  0  0  0  0  0
    8.4912    8.1596    0.0000 N   0  0  0  0  0  0  0  0  0  0  0  0
   11.0383    8.4133    0.0000 C   0  0  0  0  0  0  0  0  0  0  0  0
   11.8722    9.5451    0.0000 C   0  0  0  0  0  0  0  0  0  0  0  0
   11.0535   10.6843    0.0000 N   0  0  0  0  0  0  0  0  0  0  0  0
   11.4615    7.0808    0.0000 C   0  0  0  0  0  0  0  0  0  0  0  0
   10.5136    6.0423    0.0000 C   0  0  0  0  0  0  0  0  0  0  0  0
   10.9380    4.7080    0.0000 C   0  0  0  0  0  0  0  0  0  0  0  0
   12.3079    4.4057    0.0000 C   0  0  0  0  0  0  0  0  0  0  0  0
   13.2554    5.4445    0.0000 C   0  0  0  0  0  0  0  0  0  0  0  0
   12.8288    6.7810    0.0000 C   0  0  0  0  0  0  0  0  0  0  0  0
    9.9951    3.6757    0.0000 C   0  0  0  0  0  0  0  0  0  0  0  0
   12.7304    3.0730    0.0000 C   0  0  0  0  0  0  0  0  0  0  0  0
   11.7418    2.0845    0.0000 O   0  0  0  0  0  0  0  0  0  0  0  0
   14.0808    2.7112    0.0000 N   0  0  0  0  0  0  0  0  0  0  0  0
   14.4426    1.3608    0.0000 C   0  0  0  0  0  0  0  0  0  0  0  0
   14.0780    0.0000    0.0000 C   0  0  0  0  0  0  0  0  0  0  0  0
   15.4305    0.3729    0.0000 C   0  0  0  0  0  0  0  0  0  0  0  0
    8.5138   12.3634    0.0000 N   0  0  0  0  0  0  0  0  0  0  0  0
    9.7279   13.0643    0.0000 C   0  0  0  0  0  0  0  0  0  0  0  0
    9.7279   14.4604    0.0000 C   0  0  0  0  0  0  0  0  0  0  0  0
   10.9395   15.1599    0.0000 C   0  0  0  0  0  0  0  0  0  0  0  0
   10.9395   16.5575    0.0000 F   0  0  0  0  0  0  0  0  0  0  0  0
   11.4179   13.8457    0.0000 F   0  0  0  0  0  0  0  0  0  0  0  0
   12.3165   15.4022    0.0000 F   0  0  0  0  0  0  0  0  0  0  0  0
    6.0651    8.1753    0.0000 O   0  0  0  0  0  0  0  0  0  0  0  0
    4.8510    8.8763    0.0000 C   0  0  0  0  0  0  0  0  0  0  0  0
    4.8512   10.2889    0.0000 C   0  0  0  0  0  0  0  0  0  0  0  0
    3.6336   10.9857    0.0000 C   0  0  0  0  0  0  0  0  0  0  0  0
    2.4225   10.2816    0.0000 C   0  0  0  0  0  0  0  0  0  0  0  0
    2.4254    8.8790    0.0000 C   0  0  0  0  0  0  0  0  0  0  0  0
    3.6410    8.1799    0.0000 C   0  0  0  0  0  0  0  0  0  0  0  0
    1.2117   10.9806    0.0000 O   0  0  0  0  0  0  0  0  0  0  0  0
    0.0000   10.2810    0.0000 C   0  0  0  0  0  0  0  0  0  0  0  0
    1.2146    8.1800    0.0000 F   0  0  0  0  0  0  0  0  0  0  0  0
    3.6410    6.7819    0.0000 F   0  0  0  0  0  0  0  0  0  0  0  0
  1  2  1  0  0  0  0
  2  3  1  0  0  0  0
  3  4  2  0  0  0  0
  4  5  1  0  0  0  0
  5  6  2  0  0  0  0
  6  1  1  0  0  0  0
  1  7  1  0  0  0  0
  7  8  2  0  0  0  0
  8  9  1  0  0  0  0
  9  2  2  0  0  0  0
  7 10  1  0  0  0  0
 10 11  2  0  0  0  0
 11 12  1  0  0  0  0
 12 13  2  0  0  0  0
 13 14  1  0  0  0  0
 14 15  2  0  0  0  0
 15 10  1  0  0  0  0
 12 16  1  0  0  0  0
 13 17  1  0  0  0  0
 17 18  2  0  0  0  0
 17 19  1  0  0  0  0
 19 20  1  0  0  0  0
 20 21  1  0  0  0  0
 21 22  1  0  0  0  0
 22 20  1  0  0  0  0
  3 23  1  0  0  0  0
 23 24  1  0  0  0  0
 24 25  1  0  0  0  0
 25 26  1  0  0  0  0
 26 27  1  0  0  0  0
 26 28  1  0  0  0  0
 26 29  1  0  0  0  0
  5 30  1  0  0  0  0
 30 31  1  0  0  0  0
 31 32  2  0  0  0  0
 32 33  1  0  0  0  0
 33 34  2  0  0  0  0
 34 35  1  0  0  0  0
 35 36  2  0  0  0  0
 36 31  1  0  0  0  0
 34 37  1  0  0  0  0
 37 38  1  0  0  0  0
 35 39  1  0  0  0  0
 36 40  1  0  0  0  0
M  END
>  <Mol_ID> (627)
3350

>  <Formula> (627)
C27H24F5N5O3

>  <MolWeight> (627)
561.503176

>  <Cat> (627)
S8215

>  <Name> (627)
BAY 1217389

>  <Synonyms> (627)
N/A

>  <Target> (627)
Kinesin

>  <Form> (627)
Free Base

>  <CAS> (627)
1554458-53-5

>  <URL> (627)
http://www.selleckchem.com/products/bay-1217389.html

$$$$
ASP8273 (Naquotinib).cdx
csChFnd80/05071909292D

 42 46  0  0  0  0  0  0  0  0999 V2000
   14.5627    2.1015    0.0000 C   0  0  0  0  0  0  0  0  0  0  0  0
   13.3391    2.8041    0.0000 C   0  0  0  0  0  0  0  0  0  0  0  0
   13.3390    4.2102    0.0000 N   0  0  0  0  0  0  0  0  0  0  0  0
   14.5588    4.9145    0.0000 C   0  0  0  0  0  0  0  0  0  0  0  0
   15.7767    4.2113    0.0000 C   0  0  0  0  0  0  0  0  0  0  0  0
   15.7767    2.8189    0.0000 N   0  0  0  0  0  0  0  0  0  0  0  0
   12.1267    2.1041    0.0000 N   0  0  0  0  0  0  0  0  0  0  0  0
   14.5627    0.7015    0.0000 C   0  0  0  0  0  0  0  0  0  0  0  0
   14.5588    6.3145    0.0000 O   0  0  0  0  0  0  0  0  0  0  0  0
   16.9892    4.9113    0.0000 C   0  0  0  0  0  0  0  0  0  0  0  0
   15.7778    0.0000    0.0000 N   0  0  0  0  0  0  0  0  0  0  0  0
   13.3529    0.0030    0.0000 O   0  0  0  0  0  0  0  0  0  0  0  0
   18.2016    4.2113    0.0000 C   0  0  0  0  0  0  0  0  0  0  0  0
   10.9145    2.8040    0.0000 C   0  0  0  0  0  0  0  0  0  0  0  0
    9.7295    2.1197    0.0000 C   0  0  0  0  0  0  0  0  0  0  0  0
    8.4888    2.8360    0.0000 C   0  0  0  0  0  0  0  0  0  0  0  0
    8.4871    4.2348    0.0000 C   0  0  0  0  0  0  0  0  0  0  0  0
    9.7191    4.9482    0.0000 C   0  0  0  0  0  0  0  0  0  0  0  0
   10.9165    4.2533    0.0000 C   0  0  0  0  0  0  0  0  0  0  0  0
    7.2746    4.9348    0.0000 N   0  0  0  0  0  0  0  0  0  0  0  0
    6.0622    4.2348    0.0000 C   0  0  0  0  0  0  0  0  0  0  0  0
    4.8497    4.9348    0.0000 C   0  0  0  0  0  0  0  0  0  0  0  0
    4.8497    6.3348    0.0000 C   0  0  0  0  0  0  0  0  0  0  0  0
    6.0622    7.0348    0.0000 C   0  0  0  0  0  0  0  0  0  0  0  0
    7.2746    6.3348    0.0000 C   0  0  0  0  0  0  0  0  0  0  0  0
    3.6373    7.0348    0.0000 N   0  0  0  0  0  0  0  0  0  0  0  0
    2.4249    6.3348    0.0000 C   0  0  0  0  0  0  0  0  0  0  0  0
    1.2124    7.0348    0.0000 C   0  0  0  0  0  0  0  0  0  0  0  0
    1.2124    8.4348    0.0000 N   0  0  0  0  0  0  0  0  0  0  0  0
    2.4249    9.1348    0.0000 C   0  0  0  0  0  0  0  0  0  0  0  0
    3.6373    8.4348    0.0000 C   0  0  0  0  0  0  0  0  0  0  0  0
    0.0000    9.1348    0.0000 C   0  0  0  0  0  0  0  0  0  0  0  0
   15.7712    7.0145    0.0000 C   0  0  1  0  0  0  0  0  0  0  0  0
   17.1179    7.4692    0.0000 C   0  0  0  0  0  0  0  0  0  0  0  0
   17.1229    8.8498    0.0000 N   0  0  0  0  0  0  0  0  0  0  0  0
   15.7859    9.2798    0.0000 C   0  0  0  0  0  0  0  0  0  0  0  0
   14.9627    8.1409    0.0000 C   0  0  0  0  0  0  0  0  0  0  0  0
   18.2558    9.6724    0.0000 C   0  0  0  0  0  0  0  0  0  0  0  0
   19.5346    9.1026    0.0000 C   0  0  0  0  0  0  0  0  0  0  0  0
   18.1099   11.0648    0.0000 O   0  0  0  0  0  0  0  0  0  0  0  0
   20.6675    9.9252    0.0000 C   0  0  0  0  0  0  0  0  0  0  0  0
   16.3480    5.7388    0.0000 H   0  0  0  0  0  0  0  0  0  0  0  0
  1  2  2  0  0  0  0
  2  3  1  0  0  0  0
  3  4  2  0  0  0  0
  4  5  1  0  0  0  0
  5  6  2  0  0  0  0
  6  1  1  0  0  0  0
  2  7  1  0  0  0  0
  1  8  1  0  0  0  0
  4  9  1  0  0  0  0
  5 10  1  0  0  0  0
  8 11  1  0  0  0  0
  8 12  2  0  0  0  0
 10 13  1  0  0  0  0
  7 14  1  0  0  0  0
 14 15  2  0  0  0  0
 15 16  1  0  0  0  0
 16 17  2  0  0  0  0
 17 18  1  0  0  0  0
 18 19  2  0  0  0  0
 19 14  1  0  0  0  0
 17 20  1  0  0  0  0
 20 21  1  0  0  0  0
 21 22  1  0  0  0  0
 22 23  1  0  0  0  0
 23 24  1  0  0  0  0
 24 25  1  0  0  0  0
 25 20  1  0  0  0  0
 23 26  1  0  0  0  0
 26 27  1  0  0  0  0
 27 28  1  0  0  0  0
 28 29  1  0  0  0  0
 29 30  1  0  0  0  0
 30 31  1  0  0  0  0
 31 26  1  0  0  0  0
 29 32  1  0  0  0  0
 33  9  1  6  0  0  0
 33 34  1  0  0  0  0
 34 35  1  0  0  0  0
 35 36  1  0  0  0  0
 36 37  1  0  0  0  0
 37 33  1  0  0  0  0
 35 38  1  0  0  0  0
 38 39  1  0  0  0  0
 38 40  2  0  0  0  0
 39 41  2  0  0  0  0
 33 42  1  1  0  0  0
M  END
>  <Mol_ID> (628)
3352

>  <Formula> (628)
C30H42N8O3

>  <MolWeight> (628)
562.70628

>  <Cat> (628)
S8412

>  <Name> (628)
ASP8273 (Naquotinib)

>  <Synonyms> (628)
N/A

>  <Target> (628)
EGFR

>  <Form> (628)
Free Base

>  <CAS> (628)
1448232-80-1

>  <URL> (628)
http://www.selleckchem.com/products/naquotinib-asp8273.html

$$$$
LDC4297 (LDC044297).cdx
csChFnd80/05071909292D

 32 36  0  0  0  0  0  0  0  0999 V2000
    6.0621    4.8955    0.0000 C   0  0  0  0  0  0  0  0  0  0  0  0
    4.8528    4.1902    0.0000 N   0  0  0  0  0  0  0  0  0  0  0  0
    4.8589    2.7902    0.0000 C   0  0  0  0  0  0  0  0  0  0  0  0
    6.0744    2.0955    0.0000 N   0  0  0  0  0  0  0  0  0  0  0  0
    7.2838    2.8008    0.0000 C   0  0  0  0  0  0  0  0  0  0  0  0
    7.2776    4.2008    0.0000 N   0  0  0  0  0  0  0  0  0  0  0  0
    8.6171    2.3741    0.0000 C   0  0  0  0  0  0  0  0  0  0  0  0
    9.4350    3.5103    0.0000 C   0  0  0  0  0  0  0  0  0  0  0  0
    8.6171    4.6393    0.0000 N   0  0  0  0  0  0  0  0  0  0  0  0
    6.0559    6.2955    0.0000 N   0  0  0  0  0  0  0  0  0  0  0  0
    4.8404    6.9901    0.0000 C   0  0  0  0  0  0  0  0  0  0  0  0
    2.2311    8.8048    0.0000 N   0  0  0  0  0  0  0  0  0  0  0  0
    4.8343    8.3901    0.0000 C   0  0  0  0  0  0  0  0  0  0  0  0
    6.0482    9.0875    0.0000 C   0  0  0  0  0  0  0  0  0  0  0  0
    6.0482   10.4875    0.0000 C   0  0  0  0  0  0  0  0  0  0  0  0
    4.8343   11.1901    0.0000 C   0  0  0  0  0  0  0  0  0  0  0  0
    3.6203   10.4875    0.0000 C   0  0  0  0  0  0  0  0  0  0  0  0
    3.6203    9.0875    0.0000 C   0  0  0  0  0  0  0  0  0  0  0  0
    3.6496    2.0848    0.0000 O   0  0  0  0  0  0  0  0  0  0  0  0
    2.4341    2.7795    0.0000 C   0  0  3  0  0  0  0  0  0  0  0  0
    2.4248    4.1795    0.0000 C   0  0  0  0  0  0  0  0  0  0  0  0
    1.2078    4.8714    0.0000 C   0  0  0  0  0  0  0  0  0  0  0  0
    0.0000    4.1795    0.0000 C   0  0  0  0  0  0  0  0  0  0  0  0
    0.0000    2.7795    0.0000 N   0  0  0  0  0  0  0  0  0  0  0  0
    1.2078    2.0875    0.0000 C   0  0  0  0  0  0  0  0  0  0  0  0
    0.9496    9.3686    0.0000 N   0  0  0  0  0  0  0  0  0  0  0  0
    0.0174    8.3241    0.0000 C   0  0  0  0  0  0  0  0  0  0  0  0
    0.7228    7.1147    0.0000 C   0  0  0  0  0  0  0  0  0  0  0  0
    2.0909    7.4118    0.0000 C   0  0  0  0  0  0  0  0  0  0  0  0
    9.0556    1.0445    0.0000 C   0  0  0  0  0  0  0  0  0  0  0  0
    8.1234    0.0000    0.0000 C   0  0  0  0  0  0  0  0  0  0  0  0
   10.4263    0.7595    0.0000 C   0  0  0  0  0  0  0  0  0  0  0  0
  1  2  2  0  0  0  0
  2  3  1  0  0  0  0
  3  4  2  0  0  0  0
  4  5  1  0  0  0  0
  5  6  1  0  0  0  0
  6  1  1  0  0  0  0
  5  7  2  0  0  0  0
  7  8  1  0  0  0  0
  8  9  2  0  0  0  0
  9  6  1  0  0  0  0
  1 10  1  0  0  0  0
 10 11  1  0  0  0  0
 11 13  1  0  0  0  0
 13 14  2  0  0  0  0
 14 15  1  0  0  0  0
 15 16  2  0  0  0  0
 16 17  1  0  0  0  0
 17 18  2  0  0  0  0
 18 13  1  0  0  0  0
  3 19  1  0  0  0  0
 19 20  1  0  0  0  0
 20 21  1  0  0  0  0
 21 22  1  0  0  0  0
 22 23  1  0  0  0  0
 23 24  1  0  0  0  0
 24 25  1  0  0  0  0
 25 20  1  0  0  0  0
 12 26  1  0  0  0  0
 26 27  2  0  0  0  0
 27 28  1  0  0  0  0
 28 29  2  0  0  0  0
 29 12  1  0  0  0  0
  7 30  1  0  0  0  0
 30 31  1  0  0  0  0
 30 32  1  0  0  0  0
 12 18  1  0  0  0  0
M  END
>  <Mol_ID> (629)
3356

>  <Formula> (629)
C23H28N8O

>  <MolWeight> (629)
432.52142

>  <Cat> (629)
S7992

>  <Name> (629)
LDC4297 (LDC044297)

>  <Synonyms> (629)
N/A

>  <Target> (629)
CDK

>  <Form> (629)
Free Base

>  <CAS> (629)
1453834-21-3

>  <URL> (629)
http://www.selleckchem.com/products/ldc4297-ldc044297.html

$$$$
ONO-4059 (GS-4059).cdx
csChFnd80/05071909292D

 35 38  0  0  0  0  0  0  0  0999 V2000
    9.2370    0.0000    0.0000 N   0  0  0  0  0  0  0  0  0  0  0  0
   10.6346    0.0000    0.0000 C   0  0  0  0  0  0  0  0  0  0  0  0
   11.3318    1.2075    0.0000 N   0  0  0  0  0  0  0  0  0  0  0  0
   10.6356    2.4132    0.0000 C   0  0  0  0  0  0  0  0  0  0  0  0
    9.2163    2.4132    0.0000 C   0  0  0  0  0  0  0  0  0  0  0  0
    8.5241    1.2143    0.0000 C   0  0  0  0  0  0  0  0  0  0  0  0
    7.1389    1.2143    0.0000 N   0  0  0  0  0  0  0  0  0  0  0  0
    8.7245    3.7049    0.0000 N   0  0  0  0  0  0  0  0  0  0  0  0
   11.0718    3.7114    0.0000 N   0  0  0  0  0  0  0  0  0  0  0  0
   12.4036    4.1429    0.0000 C   0  0  2  0  0  0  0  0  0  0  0  0
   12.8381    5.4737    0.0000 C   0  0  0  0  0  0  0  0  0  0  0  0
   14.2385    5.4715    0.0000 C   0  0  0  0  0  0  0  0  0  0  0  0
   14.6688    4.1391    0.0000 N   0  0  0  0  0  0  0  0  0  0  0  0
   13.5345    3.3179    0.0000 C   0  0  0  0  0  0  0  0  0  0  0  0
    9.8259    4.5752    0.0000 C   0  0  0  0  0  0  0  0  0  0  0  0
    9.8259    5.9748    0.0000 O   0  0  0  0  0  0  0  0  0  0  0  0
    7.3695    4.0927    0.0000 C   0  0  0  0  0  0  0  0  0  0  0  0
    7.0224    5.4659    0.0000 C   0  0  0  0  0  0  0  0  0  0  0  0
    5.6639    5.8160    0.0000 C   0  0  0  0  0  0  0  0  0  0  0  0
    4.6925    4.8446    0.0000 C   0  0  0  0  0  0  0  0  0  0  0  0
    5.0320    3.4715    0.0000 C   0  0  0  0  0  0  0  0  0  0  0  0
    6.3980    3.1212    0.0000 C   0  0  0  0  0  0  0  0  0  0  0  0
    3.3381    5.2369    0.0000 O   0  0  0  0  0  0  0  0  0  0  0  0
    2.3427    4.2754    0.0000 C   0  0  0  0  0  0  0  0  0  0  0  0
    2.6477    2.9213    0.0000 C   0  0  0  0  0  0  0  0  0  0  0  0
    1.6652    1.9387    0.0000 C   0  0  0  0  0  0  0  0  0  0  0  0
    0.3053    2.3417    0.0000 C   0  0  0  0  0  0  0  0  0  0  0  0
    0.0000    3.6970    0.0000 C   0  0  0  0  0  0  0  0  0  0  0  0
    0.9861    4.6803    0.0000 C   0  0  0  0  0  0  0  0  0  0  0  0
   16.0019    3.6922    0.0000 C   0  0  0  0  0  0  0  0  0  0  0  0
   17.0510    4.6192    0.0000 C   0  0  0  0  0  0  0  0  0  0  0  0
   16.2802    2.3201    0.0000 O   0  0  0  0  0  0  0  0  0  0  0  0
   18.0987    5.5455    0.0000 C   0  0  0  0  0  0  0  0  0  0  0  0
   19.1463    6.4719    0.0000 C   0  0  0  0  0  0  0  0  0  0  0  0
   14.4227    0.6363    0.0000 Cl  0  0  0  0  0  0  0  0  0  0  0  0
  1  2  2  0  0  0  0
  2  3  1  0  0  0  0
  3  4  2  0  0  0  0
  4  5  1  0  0  0  0
  5  6  2  0  0  0  0
  6  1  1  0  0  0  0
  6  7  1  0  0  0  0
  5  8  1  0  0  0  0
  4  9  1  0  0  0  0
 10  9  1  6  0  0  0
 10 11  1  0  0  0  0
 11 12  1  0  0  0  0
 12 13  1  0  0  0  0
 13 14  1  0  0  0  0
 14 10  1  0  0  0  0
  8 15  1  0  0  0  0
 15  9  1  0  0  0  0
 15 16  2  0  0  0  0
  8 17  1  0  0  0  0
 17 18  2  0  0  0  0
 18 19  1  0  0  0  0
 19 20  2  0  0  0  0
 20 21  1  0  0  0  0
 21 22  2  0  0  0  0
 22 17  1  0  0  0  0
 20 23  1  0  0  0  0
 23 24  1  0  0  0  0
 24 25  2  0  0  0  0
 25 26  1  0  0  0  0
 26 27  2  0  0  0  0
 27 28  1  0  0  0  0
 28 29  2  0  0  0  0
 29 24  1  0  0  0  0
 13 30  1  0  0  0  0
 30 31  1  0  0  0  0
 30 32  2  0  0  0  0
 31 33  3  0  0  0  0
 33 34  1  0  0  0  0
M  END
>  <Mol_ID> (630)
3357

>  <Formula> (630)
C25H23ClN6O3

>  <MolWeight> (630)
490.94152

>  <Cat> (630)
S8166

>  <Name> (630)
ONO-4059 (GS-4059) hydrochloride

>  <Synonyms> (630)
N/A

>  <Target> (630)
BTK

>  <Form> (630)
hydrochloride

>  <CAS> (630)
1439901-97-9

>  <URL> (630)
http://www.selleckchem.com/products/ono-4059-gs-4059.html

$$$$
CP21R7 (CP21).cdx
csChFnd80/05071909292D

 24 27  0  0  0  0  0  0  0  0999 V2000
    4.9617    4.6870    0.0000 C   0  0  0  0  0  0  0  0  0  0  0  0
    6.3617    4.6870    0.0000 C   0  0  0  0  0  0  0  0  0  0  0  0
    6.7943    6.0185    0.0000 C   0  0  0  0  0  0  0  0  0  0  0  0
    5.6617    6.8414    0.0000 N   0  0  0  0  0  0  0  0  0  0  0  0
    4.5291    6.0185    0.0000 C   0  0  0  0  0  0  0  0  0  0  0  0
    3.1976    6.4511    0.0000 O   0  0  0  0  0  0  0  0  0  0  0  0
    8.1258    6.4511    0.0000 O   0  0  0  0  0  0  0  0  0  0  0  0
    4.1388    3.5544    0.0000 C   0  0  0  0  0  0  0  0  0  0  0  0
    7.1846    3.5544    0.0000 C   0  0  0  0  0  0  0  0  0  0  0  0
    2.7388    3.5544    0.0000 C   0  0  0  0  0  0  0  0  0  0  0  0
    2.3062    2.2229    0.0000 C   0  0  0  0  0  0  0  0  0  0  0  0
    3.4388    1.4000    0.0000 N   0  0  0  0  0  0  0  0  0  0  0  0
    4.5714    2.2229    0.0000 C   0  0  0  0  0  0  0  0  0  0  0  0
    1.8020    4.5948    0.0000 C   0  0  0  0  0  0  0  0  0  0  0  0
    0.4326    4.3037    0.0000 C   0  0  0  0  0  0  0  0  0  0  0  0
    0.0000    2.9722    0.0000 C   0  0  0  0  0  0  0  0  0  0  0  0
    0.9368    1.9318    0.0000 C   0  0  0  0  0  0  0  0  0  0  0  0
    6.6152    2.2754    0.0000 C   0  0  0  0  0  0  0  0  0  0  0  0
    7.4381    1.1428    0.0000 C   0  0  0  0  0  0  0  0  0  0  0  0
    8.8304    1.2891    0.0000 C   0  0  0  0  0  0  0  0  0  0  0  0
    9.3998    2.5681    0.0000 C   0  0  0  0  0  0  0  0  0  0  0  0
    8.5769    3.7007    0.0000 C   0  0  0  0  0  0  0  0  0  0  0  0
    3.4388    0.0000    0.0000 C   0  0  0  0  0  0  0  0  0  0  0  0
   10.7922    2.7144    0.0000 N   0  0  0  0  0  0  0  0  0  0  0  0
  1  2  2  0  0  0  0
  2  3  1  0  0  0  0
  3  4  1  0  0  0  0
  4  5  1  0  0  0  0
  5  1  1  0  0  0  0
  5  6  2  0  0  0  0
  3  7  2  0  0  0  0
  1  8  1  0  0  0  0
  2  9  1  0  0  0  0
  8 10  1  0  0  0  0
 10 11  2  0  0  0  0
 11 12  1  0  0  0  0
 12 13  1  0  0  0  0
 13  8  2  0  0  0  0
 10 14  1  0  0  0  0
 14 15  2  0  0  0  0
 15 16  1  0  0  0  0
 16 17  2  0  0  0  0
 17 11  1  0  0  0  0
  9 18  2  0  0  0  0
 18 19  1  0  0  0  0
 19 20  2  0  0  0  0
 20 21  1  0  0  0  0
 21 22  2  0  0  0  0
 22  9  1  0  0  0  0
 12 23  1  0  0  0  0
 21 24  1  0  0  0  0
M  END
>  <Mol_ID> (631)
3359

>  <Formula> (631)
C19H15N3O2

>  <MolWeight> (631)
317.3413

>  <Cat> (631)
S7954

>  <Name> (631)
CP21R7 (CP21)

>  <Synonyms> (631)
N/A

>  <Target> (631)
Wnt/beta-catenin

>  <Form> (631)
Free Base

>  <CAS> (631)
125314-13-8

>  <URL> (631)
http://www.selleckchem.com/products/cp21r7-cp21.html

$$$$
Hydroxyfasudil (HA-1100).cdx
csChFnd80/05071909292D

 23 23  0  0  0  0  0  0  0  0999 V2000
    2.8000    7.2586    0.0000 C   0  0  0  0  0  0  0  0  0  0  0  0
    4.2000    7.2586    0.0000 C   0  0  0  0  0  0  0  0  0  0  0  0
    4.9000    8.4710    0.0000 C   0  0  0  0  0  0  0  0  0  0  0  0
    4.2000    9.6835    0.0000 C   0  0  0  0  0  0  0  0  0  0  0  0
    2.8000    9.6835    0.0000 C   0  0  0  0  0  0  0  0  0  0  0  0
    2.1000    8.4710    0.0000 C   0  0  0  0  0  0  0  0  0  0  0  0
    0.7000    8.4710    0.0000 C   0  0  0  0  0  0  0  0  0  0  0  0
    0.0000    7.2586    0.0000 N   0  0  0  0  0  0  0  0  0  0  0  0
    0.7000    6.0462    0.0000 C   0  0  0  0  0  0  0  0  0  0  0  0
    2.1000    6.0462    0.0000 C   0  0  0  0  0  0  0  0  0  0  0  0
    0.0000    9.6835    0.0000 O   0  0  0  0  0  0  0  0  0  0  0  0
    4.9000    6.0462    0.0000 S   0  0  0  0  0  0  0  0  0  0  0  0
    3.6876    5.3462    0.0000 O   0  0  0  0  0  0  0  0  0  0  0  0
    6.1124    6.7462    0.0000 O   0  0  0  0  0  0  0  0  0  0  0  0
    5.6000    4.8337    0.0000 N   0  0  0  0  0  0  0  0  0  0  0  0
    4.8114    3.6770    0.0000 C   0  0  0  0  0  0  0  0  0  0  0  0
    5.2240    2.3392    0.0000 C   0  0  0  0  0  0  0  0  0  0  0  0
    6.5272    1.8277    0.0000 C   0  0  0  0  0  0  0  0  0  0  0  0
    7.7397    2.5277    0.0000 N   0  0  0  0  0  0  0  0  0  0  0  0
    7.9483    3.9121    0.0000 C   0  0  0  0  0  0  0  0  0  0  0  0
    6.9961    4.9384    0.0000 C   0  0  0  0  0  0  0  0  0  0  0  0
    0.1777    0.3646    0.0000 Cl  0  0  0  0  0  0  0  0  0  0  0  0
    2.7298    0.0000    0.0000 R   0  0  0  0  0  0  0  0  0  0  0  0
  2  3  2  0  0  0  0
  4  5  2  0  0  0  0
  6  1  2  0  0  0  0
  6  7  1  0  0  0  0
  7  8  1  0  0  0  0
  8  9  1  0  0  0  0
  9 10  2  0  0  0  0
 10  1  1  0  0  0  0
  7 11  2  0  0  0  0
  2 12  1  0  0  0  0
 12 13  2  0  0  0  0
 12 14  2  0  0  0  0
 12 15  1  0  0  0  0
 15 16  1  0  0  0  0
 16 17  1  0  0  0  0
 17 18  1  0  0  0  0
 18 19  1  0  0  0  0
 19 20  1  0  0  0  0
 20 21  1  0  0  0  0
 21 15  1  0  0  0  0
  1  2  1  0  0  0  0
  5  6  1  0  0  0  0
  4  3  1  0  0  0  0
A   23
xH2O
M  END
>  <Mol_ID> (632)
3364

>  <Formula> (632)
C14H18ClN3O3RS

>  <MolWeight> (632)
343.82902

>  <Cat> (632)
S8208

>  <Name> (632)
Hydroxyfasudil (HA-1100)HCl

>  <Synonyms> (632)
N/A

>  <Target> (632)
ROCK

>  <Form> (632)
hydrochloride

>  <CAS> (632)
155558-32-0 (HCl salt)

>  <URL> (632)
http://www.selleckchem.com/products/hydroxyfasudil-ha-1100.html

$$$$
NCB-0846.cdx
csChFnd80/05071909292D

 28 32  0  0  0  0  0  0  0  0999 V2000
    1.0404    9.8000    0.0000 C   0  0  0  0  0  0  0  0  0  0  0  0
    1.0404    8.4000    0.0000 C   0  0  0  0  0  0  0  0  0  0  0  0
    2.2528    7.7000    0.0000 C   0  0  0  0  0  0  0  0  0  0  0  0
    3.4653    8.4000    0.0000 C   0  0  0  0  0  0  0  0  0  0  0  0
    3.4653    9.8000    0.0000 C   0  0  0  0  0  0  0  0  0  0  0  0
    2.2528   10.5000    0.0000 C   0  0  0  0  0  0  0  0  0  0  0  0
    0.0000    7.4632    0.0000 N   0  0  0  0  0  0  0  0  0  0  0  0
    0.5694    6.1843    0.0000 C   0  0  0  0  0  0  0  0  0  0  0  0
    1.9618    6.3306    0.0000 N   0  0  0  0  0  0  0  0  0  0  0  0
    4.6777   10.5000    0.0000 N   0  0  0  0  0  0  0  0  0  0  0  0
    5.8901    9.8000    0.0000 C   0  0  0  0  0  0  0  0  0  0  0  0
    5.8901    8.4000    0.0000 N   0  0  0  0  0  0  0  0  0  0  0  0
    7.1026    7.7000    0.0000 C   0  0  0  0  0  0  0  0  0  0  0  0
    8.3150    8.4000    0.0000 C   0  0  0  0  0  0  0  0  0  0  0  0
    8.3150    9.8000    0.0000 C   0  0  0  0  0  0  0  0  0  0  0  0
    7.1026   10.5000    0.0000 N   0  0  0  0  0  0  0  0  0  0  0  0
    7.1026    6.3000    0.0000 C   0  0  0  0  0  0  0  0  0  0  0  0
    8.3150    5.6000    0.0000 C   0  0  0  0  0  0  0  0  0  0  0  0
    9.5275    6.3000    0.0000 C   0  0  0  0  0  0  0  0  0  0  0  0
    9.5275    7.7000    0.0000 C   0  0  0  0  0  0  0  0  0  0  0  0
    5.8901    5.6000    0.0000 O   0  0  0  0  0  0  0  0  0  0  0  0
    5.8901    4.2000    0.0000 C   0  0  2  0  0  0  0  0  0  0  0  0
    4.6777    3.5000    0.0000 C   0  0  0  0  0  0  0  0  0  0  0  0
    4.6777    2.1000    0.0000 C   0  0  0  0  0  0  0  0  0  0  0  0
    5.8901    1.4000    0.0000 C   0  0  1  0  0  0  0  0  0  0  0  0
    7.1026    2.1000    0.0000 C   0  0  0  0  0  0  0  0  0  0  0  0
    7.1026    3.5000    0.0000 C   0  0  0  0  0  0  0  0  0  0  0  0
    5.8901    0.0000    0.0000 O   0  0  0  0  0  0  0  0  0  0  0  0
  1  2  2  0  0  0  0
  2  3  1  0  0  0  0
  3  4  2  0  0  0  0
  4  5  1  0  0  0  0
  5  6  2  0  0  0  0
  6  1  1  0  0  0  0
  2  7  1  0  0  0  0
  7  8  2  0  0  0  0
  8  9  1  0  0  0  0
  9  3  1  0  0  0  0
  5 10  1  0  0  0  0
 10 11  1  0  0  0  0
 11 12  2  0  0  0  0
 12 13  1  0  0  0  0
 13 14  2  0  0  0  0
 14 15  1  0  0  0  0
 15 16  2  0  0  0  0
 16 11  1  0  0  0  0
 13 17  1  0  0  0  0
 17 18  2  0  0  0  0
 18 19  1  0  0  0  0
 19 20  2  0  0  0  0
 20 14  1  0  0  0  0
 17 21  1  0  0  0  0
 22 21  1  1  0  0  0
 22 23  1  0  0  0  0
 23 24  1  0  0  0  0
 24 25  1  0  0  0  0
 25 26  1  0  0  0  0
 26 27  1  0  0  0  0
 27 22  1  0  0  0  0
 25 28  1  1  0  0  0
M  END
>  <Mol_ID> (633)
3365

>  <Formula> (633)
C21H21N5O2

>  <MolWeight> (633)
375.42374

>  <Cat> (633)
S8392

>  <Name> (633)
NCB-0846

>  <Synonyms> (633)
N/A

>  <Target> (633)
Wnt/beta-catenin

>  <Form> (633)
Free Base

>  <CAS> (633)
1792999-26-8

>  <URL> (633)
http://www.selleckchem.com/products/ncb-0846.html

$$$$
NG25.cdx
csChFnd80/05071909292D

 69 73  0     0  0  0  0  0  0999 V2000
    3.3660    3.8130    0.0000 F   0  0  0  0  0  0  0  0  0  0  0  0
    2.0000    3.4470    0.0000 F   0  0  0  0  0  0  0  0  0  0  0  0
    2.3660    2.0810    0.0000 F   0  0  0  0  0  0  0  0  0  0  0  0
    7.1962   -3.5530    0.0000 O   0  0  0  0  0  0  0  0  0  0  0  0
    6.3301   -0.0530    0.0000 O   0  0  0  0  0  0  0  0  0  0  0  0
    5.4641    4.4470    0.0000 N   0  0  0  0  0  0  0  0  0  0  0  0
    7.1962    5.4470    0.0000 N   0  0  0  0  0  0  0  0  0  0  0  0
    4.5981   -0.0530    0.0000 N   0  0  0  0  0  0  0  0  0  0  0  0
    9.0084   -6.3577    0.0000 N   0  0  0  0  0  0  0  0  0  0  0  0
    7.1962   -6.5530    0.0000 N   0  0  0  0  0  0  0  0  0  0  0  0
    6.3301    3.9470    0.0000 C   0  0  0  0  0  0  0  0  0  0  0  0
    5.4641    5.4470    0.0000 C   0  0  0  0  0  0  0  0  0  0  0  0
    7.1962    4.4470    0.0000 C   0  0  0  0  0  0  0  0  0  0  0  0
    6.3301    5.9470    0.0000 C   0  0  0  0  0  0  0  0  0  0  0  0
    4.5981    3.9470    0.0000 C   0  0  0  0  0  0  0  0  0  0  0  0
    8.0622    5.9470    0.0000 C   0  0  0  0  0  0  0  0  0  0  0  0
    4.5981    2.9470    0.0000 C   0  0  0  0  0  0  0  0  0  0  0  0
    8.0622    6.9470    0.0000 C   0  0  0  0  0  0  0  0  0  0  0  0
    3.7320    2.4470    0.0000 C   0  0  0  0  0  0  0  0  0  0  0  0
    5.4641    2.4470    0.0000 C   0  0  0  0  0  0  0  0  0  0  0  0
    3.7320    1.4470    0.0000 C   0  0  0  0  0  0  0  0  0  0  0  0
    5.4641    1.4470    0.0000 C   0  0  0  0  0  0  0  0  0  0  0  0
    4.5981    0.9470    0.0000 C   0  0  0  0  0  0  0  0  0  0  0  0
    2.8660    2.9470    0.0000 C   0  0  0  0  0  0  0  0  0  0  0  0
    5.4641   -0.5530    0.0000 C   0  0  0  0  0  0  0  0  0  0  0  0
    5.4641   -1.5530    0.0000 C   0  0  0  0  0  0  0  0  0  0  0  0
    6.3301   -2.0530    0.0000 C   0  0  0  0  0  0  0  0  0  0  0  0
    6.3301   -3.0530    0.0000 C   0  0  0  0  0  0  0  0  0  0  0  0
    4.5981   -2.0530    0.0000 C   0  0  0  0  0  0  0  0  0  0  0  0
    5.4641   -3.5530    0.0000 C   0  0  0  0  0  0  0  0  0  0  0  0
    4.5981   -3.0530    0.0000 C   0  0  0  0  0  0  0  0  0  0  0  0
    8.0622   -5.0530    0.0000 C   0  0  0  0  0  0  0  0  0  0  0  0
    7.1962   -4.5530    0.0000 C   0  0  0  0  0  0  0  0  0  0  0  0
    8.0622   -6.0530    0.0000 C   0  0  0  0  0  0  0  0  0  0  0  0
    5.4641   -4.5530    0.0000 C   0  0  0  0  0  0  0  0  0  0  0  0
    9.0084   -4.7482    0.0000 C   0  0  0  0  0  0  0  0  0  0  0  0
    6.3301   -5.0530    0.0000 C   0  0  0  0  0  0  0  0  0  0  0  0
    9.5920   -5.5530    0.0000 C   0  0  0  0  0  0  0  0  0  0  0  0
    6.3301   -6.0530    0.0000 C   0  0  0  0  0  0  0  0  0  0  0  0
    5.9316    3.4721    0.0000 H   0  0  0  0  0  0  0  0  0  0  0  0
    6.7287    3.4721    0.0000 H   0  0  0  0  0  0  0  0  0  0  0  0
    5.2520    6.0296    0.0000 H   0  0  0  0  0  0  0  0  0  0  0  0
    4.8535    5.3394    0.0000 H   0  0  0  0  0  0  0  0  0  0  0  0
    7.4082    3.8644    0.0000 H   0  0  0  0  0  0  0  0  0  0  0  0
    7.8067    4.5547    0.0000 H   0  0  0  0  0  0  0  0  0  0  0  0
    6.7287    6.4220    0.0000 H   0  0  0  0  0  0  0  0  0  0  0  0
    5.9316    6.4220    0.0000 H   0  0  0  0  0  0  0  0  0  0  0  0
    4.3860    4.5296    0.0000 H   0  0  0  0  0  0  0  0  0  0  0  0
    3.9875    3.8394    0.0000 H   0  0  0  0  0  0  0  0  0  0  0  0
    8.2742    5.3644    0.0000 H   0  0  0  0  0  0  0  0  0  0  0  0
    8.6728    6.0547    0.0000 H   0  0  0  0  0  0  0  0  0  0  0  0
    8.6822    6.9470    0.0000 H   0  0  0  0  0  0  0  0  0  0  0  0
    8.0622    7.5670    0.0000 H   0  0  0  0  0  0  0  0  0  0  0  0
    7.4422    6.9470    0.0000 H   0  0  0  0  0  0  0  0  0  0  0  0
    6.0010    2.7570    0.0000 H   0  0  0  0  0  0  0  0  0  0  0  0
    3.1951    1.1370    0.0000 H   0  0  0  0  0  0  0  0  0  0  0  0
    6.0010    1.1370    0.0000 H   0  0  0  0  0  0  0  0  0  0  0  0
    4.0611   -0.3630    0.0000 H   0  0  0  0  0  0  0  0  0  0  0  0
    6.8671   -1.7430    0.0000 H   0  0  0  0  0  0  0  0  0  0  0  0
    4.0611   -1.7430    0.0000 H   0  0  0  0  0  0  0  0  0  0  0  0
    4.0611   -3.3630    0.0000 H   0  0  0  0  0  0  0  0  0  0  0  0
    4.8441   -4.5530    0.0000 H   0  0  0  0  0  0  0  0  0  0  0  0
    5.4641   -5.1730    0.0000 H   0  0  0  0  0  0  0  0  0  0  0  0
    6.0841   -4.5530    0.0000 H   0  0  0  0  0  0  0  0  0  0  0  0
    9.2010   -4.1589    0.0000 H   0  0  0  0  0  0  0  0  0  0  0  0
    5.7932   -4.7430    0.0000 H   0  0  0  0  0  0  0  0  0  0  0  0
    9.2010   -6.9470    0.0000 H   0  0  0  0  0  0  0  0  0  0  0  0
   10.2120   -5.5530    0.0000 H   0  0  0  0  0  0  0  0  0  0  0  0
    5.7932   -6.3630    0.0000 H   0  0  0  0  0  0  0  0  0  0  0  0
  1 24  1  0  0  0  0
  2 24  1  0  0  0  0
  3 24  1  0  0  0  0
  4 28  1  0  0  0  0
  4 33  1  0  0  0  0
  5 25  2  0  0  0  0
  6 11  1  0  0  0  0
  6 12  1  0  0  0  0
  6 15  1  0  0  0  0
  7 13  1  0  0  0  0
  7 14  1  0  0  0  0
  7 16  1  0  0  0  0
  8 23  1  0  0  0  0
  8 25  1  0  0  0  0
  8 58  1  0  0  0  0
  9 34  1  0  0  0  0
  9 38  1  0  0  0  0
  9 67  1  0  0  0  0
 10 34  2  0  0  0  0
 10 39  1  0  0  0  0
 11 13  1  0  0  0  0
 11 40  1  0  0  0  0
 11 41  1  0  0  0  0
 12 14  1  0  0  0  0
 12 42  1  0  0  0  0
 12 43  1  0  0  0  0
 13 44  1  0  0  0  0
 13 45  1  0  0  0  0
 14 46  1  0  0  0  0
 14 47  1  0  0  0  0
 15 17  1  0  0  0  0
 15 48  1  0  0  0  0
 15 49  1  0  0  0  0
 16 18  1  0  0  0  0
 16 50  1  0  0  0  0
 16 51  1  0  0  0  0
 17 19  2  0  0  0  0
 17 20  1  0  0  0  0
 18 52  1  0  0  0  0
 18 53  1  0  0  0  0
 18 54  1  0  0  0  0
 19 21  1  0  0  0  0
 19 24  1  0  0  0  0
 20 22  2  0  0  0  0
 20 55  1  0  0  0  0
 21 23  2  0  0  0  0
 21 56  1  0  0  0  0
 22 23  1  0  0  0  0
 22 57  1  0  0  0  0
 25 26  1  0  0  0  0
 26 27  2  0  0  0  0
 26 29  1  0  0  0  0
 27 28  1  0  0  0  0
 27 59  1  0  0  0  0
 28 30  2  0  0  0  0
 29 31  2  0  0  0  0
 29 60  1  0  0  0  0
 30 31  1  0  0  0  0
 30 35  1  0  0  0  0
 31 61  1  0  0  0  0
 32 33  2  0  0  0  0
 32 34  1  0  0  0  0
 32 36  1  0  0  0  0
 33 37  1  0  0  0  0
 35 62  1  0  0  0  0
 35 63  1  0  0  0  0
 35 64  1  0  0  0  0
 36 38  2  0  0  0  0
 36 65  1  0  0  0  0
 37 39  2  0  0  0  0
 37 66  1  0  0  0  0
 38 68  1  0  0  0  0
 39 69  1  0  0  0  0
M  END
>  <Mol_ID> (634)
1536

>  <Formula> (634)
C29H30F3N5O2

>  <MolWeight> (634)
537.2353904

>  <Cat> (634)
S1003

>  <Name> (634)
NG25.cdx

>  <Synonyms> (634)


>  <Target> (634)
TAK1, MAP4K2 

>  <Form> (634)
Free Base

>  <CAS> (634)
1315355-93-1

>  <URL> (634)
http://www.selleckchem.com/products/NG25.html

$$$$
Nazartinib (EGF816, NVS-816).cdx
csChFnd80/05071909292D

 35 38  0  0  0  0  0  0  0  0999 V2000
    0.0000    7.6118    0.0000 C   0  0  0  0  0  0  0  0  0  0  0  0
    0.0000    6.2118    0.0000 C   0  0  0  0  0  0  0  0  0  0  0  0
    1.2124    5.5118    0.0000 C   0  0  0  0  0  0  0  0  0  0  0  0
    2.4249    6.2118    0.0000 C   0  0  0  0  0  0  0  0  0  0  0  0
    2.4249    7.6118    0.0000 C   0  0  0  0  0  0  0  0  0  0  0  0
    1.2124    8.3118    0.0000 C   0  0  0  0  0  0  0  0  0  0  0  0
    3.7564    5.7792    0.0000 N   0  0  0  0  0  0  0  0  0  0  0  0
    4.5792    6.9118    0.0000 C   0  0  0  0  0  0  0  0  0  0  0  0
    3.7564    8.0444    0.0000 N   0  0  0  0  0  0  0  0  0  0  0  0
    5.9792    6.9118    0.0000 N   0  0  0  0  0  0  0  0  0  0  0  0
    4.1890    4.4477    0.0000 C   0  0  2  0  0  0  0  0  0  0  0  0
    3.1771    3.4802    0.0000 C   0  0  0  0  0  0  0  0  0  0  0  0
    3.3026    2.0858    0.0000 C   0  0  0  0  0  0  0  0  0  0  0  0
    4.4710    1.3146    0.0000 C   0  0  0  0  0  0  0  0  0  0  0  0
    5.8024    1.7472    0.0000 C   0  0  0  0  0  0  0  0  0  0  0  0
    6.2944    3.0579    0.0000 N   0  0  0  0  0  0  0  0  0  0  0  0
    5.5763    4.2598    0.0000 C   0  0  0  0  0  0  0  0  0  0  0  0
    6.6792    8.1242    0.0000 C   0  0  0  0  0  0  0  0  0  0  0  0
    8.0792    8.1242    0.0000 C   0  0  0  0  0  0  0  0  0  0  0  0
    5.9792    9.3367    0.0000 O   0  0  0  0  0  0  0  0  0  0  0  0
    8.7792    6.9118    0.0000 C   0  0  0  0  0  0  0  0  0  0  0  0
   10.1792    6.9118    0.0000 C   0  0  0  0  0  0  0  0  0  0  0  0
   10.8792    8.1242    0.0000 N   0  0  0  0  0  0  0  0  0  0  0  0
   10.1792    9.3367    0.0000 C   0  0  0  0  0  0  0  0  0  0  0  0
    8.7792    9.3367    0.0000 C   0  0  0  0  0  0  0  0  0  0  0  0
   10.8792    5.6994    0.0000 C   0  0  0  0  0  0  0  0  0  0  0  0
    7.6887    3.1834    0.0000 C   0  0  0  0  0  0  0  0  0  0  0  0
    8.4946    2.0386    0.0000 C   0  0  0  0  0  0  0  0  0  0  0  0
    8.2772    4.4537    0.0000 O   0  0  0  0  0  0  0  0  0  0  0  0
    9.8890    2.1641    0.0000 C   0  0  0  0  0  0  0  0  0  0  0  0
   10.6948    1.0193    0.0000 C   0  0  0  0  0  0  0  0  0  0  0  0
   12.0892    1.1448    0.0000 N   0  0  0  0  0  0  0  0  0  0  0  0
   12.8950    0.0000    0.0000 C   0  0  0  0  0  0  0  0  0  0  0  0
   12.6777    2.4151    0.0000 C   0  0  0  0  0  0  0  0  0  0  0  0
    1.2124    4.1118    0.0000 Cl  0  0  0  0  0  0  0  0  0  0  0  0
  1  2  2  0  0  0  0
  2  3  1  0  0  0  0
  3  4  2  0  0  0  0
  4  5  1  0  0  0  0
  5  6  2  0  0  0  0
  6  1  1  0  0  0  0
  4  7  1  0  0  0  0
  7  8  1  0  0  0  0
  8  9  2  0  0  0  0
  9  5  1  0  0  0  0
  8 10  1  0  0  0  0
 11  7  1  1  0  0  0
 11 12  1  0  0  0  0
 12 13  1  0  0  0  0
 13 14  1  0  0  0  0
 14 15  1  0  0  0  0
 15 16  1  0  0  0  0
 16 17  1  0  0  0  0
 17 11  1  0  0  0  0
 10 18  1  0  0  0  0
 18 19  1  0  0  0  0
 18 20  2  0  0  0  0
 19 21  2  0  0  0  0
 21 22  1  0  0  0  0
 22 23  2  0  0  0  0
 23 24  1  0  0  0  0
 24 25  2  0  0  0  0
 25 19  1  0  0  0  0
 22 26  1  0  0  0  0
 16 27  1  0  0  0  0
 27 28  1  0  0  0  0
 27 29  2  0  0  0  0
 28 30  2  0  0  0  0
 30 31  1  0  0  0  0
 31 32  1  0  0  0  0
 32 33  1  0  0  0  0
 32 34  1  0  0  0  0
  3 35  1  0  0  0  0
M  END
>  <Mol_ID> (635)
3371

>  <Formula> (635)
C26H31ClN6O2

>  <MolWeight> (635)
495.01634

>  <Cat> (635)
S7824

>  <Name> (635)
Nazartinib (EGF816, NVS-816)

>  <Synonyms> (635)
N/A

>  <Target> (635)
EGFR

>  <Form> (635)
Free Base

>  <CAS> (635)
1508250-71-2

>  <URL> (635)
http://www.selleckchem.com/products/nazartinib-egf816-nvs-816.html

$$$$
OTS964.cdx
csChFnd80/05071909292D

 30 31  0  0  0  0  0  0  0  0999 V2000
   11.5565    3.6373    0.0000 C   0  0  0  0  0  0  0  0  0  0  0  0
   12.9565    3.6373    0.0000 C   0  0  0  0  0  0  0  0  0  0  0  0
   13.6565    4.8497    0.0000 C   0  0  0  0  0  0  0  0  0  0  0  0
   12.9565    6.0622    0.0000 C   0  0  0  0  0  0  0  0  0  0  0  0
   11.5565    6.0622    0.0000 C   0  0  0  0  0  0  0  0  0  0  0  0
   10.8565    4.8497    0.0000 C   0  0  0  0  0  0  0  0  0  0  0  0
    9.4565    4.8497    0.0000 C   0  0  2  0  0  0  0  0  0  0  0  0
    8.7565    3.6373    0.0000 C   0  0  0  0  0  0  0  0  0  0  0  0
    8.7565    6.0622    0.0000 C   0  0  0  0  0  0  0  0  0  0  0  0
    7.3565    3.6373    0.0000 N   0  0  0  0  0  0  0  0  0  0  0  0
   15.0565    4.8497    0.0000 C   0  0  0  0  0  0  0  0  0  0  0  0
   15.7565    3.6373    0.0000 C   0  0  0  0  0  0  0  0  0  0  0  0
   17.1565    3.6373    0.0000 C   0  0  0  0  0  0  0  0  0  0  0  0
   17.8565    4.8497    0.0000 C   0  0  0  0  0  0  0  0  0  0  0  0
   17.1565    6.0622    0.0000 C   0  0  0  0  0  0  0  0  0  0  0  0
   15.7565    6.0622    0.0000 C   0  0  0  0  0  0  0  0  0  0  0  0
   15.0565    7.2746    0.0000 O   0  0  0  0  0  0  0  0  0  0  0  0
   19.2565    4.8497    0.0000 C   0  0  0  0  0  0  0  0  0  0  0  0
   15.0565    2.4249    0.0000 C   0  0  0  0  0  0  0  0  0  0  0  0
   15.7565    1.2124    0.0000 C   0  0  0  0  0  0  0  0  0  0  0  0
   17.1565    1.2124    0.0000 C   0  0  0  0  0  0  0  0  0  0  0  0
   17.8565    2.4249    0.0000 N   0  0  0  0  0  0  0  0  0  0  0  0
   13.6871    2.1338    0.0000 C   0  0  0  0  0  0  0  0  0  0  0  0
   13.5408    0.7415    0.0000 C   0  0  0  0  0  0  0  0  0  0  0  0
   14.8197    0.1720    0.0000 S   0  0  0  0  0  0  0  0  0  0  0  0
   17.8565    0.0000    0.0000 O   0  0  0  0  0  0  0  0  0  0  0  0
    6.6590    2.4291    0.0000 C   0  0  0  0  0  0  0  0  0  0  0  0
    6.6590    4.8455    0.0000 C   0  0  0  0  0  0  0  0  0  0  0  0
    9.7222   27.8705    0.0000 Cl  0  0  0  0  0  0  0  0  0  0  0  0
    0.0000   27.8705    0.0000 Cl  0  0  0  0  0  0  0  0  0  0  0  0
  1  2  2  0  0  0  0
  2  3  1  0  0  0  0
  3  4  2  0  0  0  0
  4  5  1  0  0  0  0
  5  6  2  0  0  0  0
  6  1  1  0  0  0  0
  6  7  1  0  0  0  0
  7  8  1  0  0  0  0
  7  9  1  6  0  0  0
  8 10  1  0  0  0  0
  3 11  1  0  0  0  0
 11 12  2  0  0  0  0
 12 13  1  0  0  0  0
 13 14  2  0  0  0  0
 14 15  1  0  0  0  0
 15 16  2  0  0  0  0
 16 11  1  0  0  0  0
 16 17  1  0  0  0  0
 14 18  1  0  0  0  0
 12 19  1  0  0  0  0
 19 20  2  0  0  0  0
 20 21  1  0  0  0  0
 21 22  1  0  0  0  0
 22 13  1  0  0  0  0
 19 23  1  0  0  0  0
 23 24  2  0  0  0  0
 24 25  1  0  0  0  0
 25 20  1  0  0  0  0
 21 26  2  0  0  0  0
 10 27  1  0  0  0  0
 10 28  1  0  0  0  0
M  END
>  <Mol_ID> (636)
3373

>  <Formula> (636)
C23H26Cl2N2O2S

>  <MolWeight> (636)
465.43574

>  <Cat> (636)
S7648

>  <Name> (636)
OTS964

>  <Synonyms> (636)
N/A

>  <Target> (636)
Others

>  <Form> (636)
dihydrochloride

>  <CAS> (636)
1338545-07-5(HCl salt)

>  <URL> (636)
http://www.selleckchem.com/products/ots964.html

$$$$
CC-930.cdx
csChFnd80/05071909292D

 33 36  0  0  0  0  0  0  0  0999 V2000
    6.3000    9.3378    0.0000 C   0  0  0  0  0  0  0  0  0  0  0  0
    4.9000    9.3378    0.0000 N   0  0  0  0  0  0  0  0  0  0  0  0
    4.2000    8.1254    0.0000 C   0  0  0  0  0  0  0  0  0  0  0  0
    4.9000    6.9129    0.0000 N   0  0  0  0  0  0  0  0  0  0  0  0
    6.3000    6.9129    0.0000 C   0  0  0  0  0  0  0  0  0  0  0  0
    7.0000    8.1254    0.0000 C   0  0  0  0  0  0  0  0  0  0  0  0
    7.2368    5.8725    0.0000 N   0  0  0  0  0  0  0  0  0  0  0  0
    8.5157    6.4419    0.0000 C   0  0  0  0  0  0  0  0  0  0  0  0
    8.3694    7.8343    0.0000 N   0  0  0  0  0  0  0  0  0  0  0  0
    2.8000    8.1254    0.0000 N   0  0  0  0  0  0  0  0  0  0  0  0
    6.9457    4.5031    0.0000 C   0  0  1  0  0  0  0  0  0  0  0  0
    9.7282    5.7419    0.0000 N   0  0  0  0  0  0  0  0  0  0  0  0
   10.9406    6.4419    0.0000 C   0  0  0  0  0  0  0  0  0  0  0  0
   12.1530    5.7419    0.0000 C   0  0  0  0  0  0  0  0  0  0  0  0
   13.3655    6.4419    0.0000 C   0  0  0  0  0  0  0  0  0  0  0  0
   13.3655    7.8419    0.0000 C   0  0  0  0  0  0  0  0  0  0  0  0
   12.1530    8.5419    0.0000 C   0  0  0  0  0  0  0  0  0  0  0  0
   10.9406    7.8419    0.0000 C   0  0  0  0  0  0  0  0  0  0  0  0
    9.7282    8.5419    0.0000 F   0  0  0  0  0  0  0  0  0  0  0  0
   14.5779    8.5419    0.0000 F   0  0  0  0  0  0  0  0  0  0  0  0
   12.1530    4.3419    0.0000 F   0  0  0  0  0  0  0  0  0  0  0  0
    5.6667    3.9337    0.0000 C   0  0  0  0  0  0  0  0  0  0  0  0
    5.8131    2.5413    0.0000 C   0  0  0  0  0  0  0  0  0  0  0  0
    7.1825    2.2503    0.0000 O   0  0  0  0  0  0  0  0  0  0  0  0
    7.8825    3.4627    0.0000 C   0  0  0  0  0  0  0  0  0  0  0  0
    2.1000    6.9129    0.0000 C   0  0  1  0  0  0  0  0  0  0  0  0
    0.7000    6.9129    0.0000 C   0  0  0  0  0  0  0  0  0  0  0  0
    0.0000    5.7005    0.0000 C   0  0  0  0  0  0  0  0  0  0  0  0
    0.7000    4.4880    0.0000 C   0  0  1  0  0  0  0  0  0  0  0  0
    2.1000    4.4880    0.0000 C   0  0  0  0  0  0  0  0  0  0  0  0
    2.8000    5.7005    0.0000 C   0  0  0  0  0  0  0  0  0  0  0  0
    0.0000    3.2756    0.0000 O   0  0  0  0  0  0  0  0  0  0  0  0
    8.1272    0.0000    0.0000 Cl  0  0  0  0  0  0  0  0  0  0  0  0
  1  2  2  0  0  0  0
  2  3  1  0  0  0  0
  3  4  2  0  0  0  0
  4  5  1  0  0  0  0
  5  6  2  0  0  0  0
  6  1  1  0  0  0  0
  5  7  1  0  0  0  0
  7  8  1  0  0  0  0
  8  9  2  0  0  0  0
  9  6  1  0  0  0  0
  3 10  1  0  0  0  0
 11  7  1  6  0  0  0
  8 12  1  0  0  0  0
 12 13  1  0  0  0  0
 13 14  2  0  0  0  0
 14 15  1  0  0  0  0
 15 16  2  0  0  0  0
 16 17  1  0  0  0  0
 17 18  2  0  0  0  0
 18 13  1  0  0  0  0
 18 19  1  0  0  0  0
 16 20  1  0  0  0  0
 14 21  1  0  0  0  0
 11 22  1  0  0  0  0
 22 23  1  0  0  0  0
 23 24  1  0  0  0  0
 24 25  1  0  0  0  0
 25 11  1  0  0  0  0
 26 10  1  6  0  0  0
 26 27  1  0  0  0  0
 27 28  1  0  0  0  0
 28 29  1  0  0  0  0
 29 30  1  0  0  0  0
 30 31  1  0  0  0  0
 31 26  1  0  0  0  0
 29 32  1  1  0  0  0
M  END
>  <Mol_ID> (637)
3374

>  <Formula> (637)
C21H24ClF3N6O2

>  <MolWeight> (637)
484.9024696

>  <Cat> (637)
S8490

>  <Name> (637)
Tanzisertib(CC-930)

>  <Synonyms> (637)
JNK-930|JNKI-1

>  <Target> (637)
JNK

>  <Form> (637)
hydrochloride

>  <CAS> (637)
899805-25-5 (free base)

>  <URL> (637)
http://www.selleckchem.com/products/cc-930.html

$$$$
PD-166866.cdx
csChFnd80/05071909292D

 29 31  0  0  0  0  0  0  0  0999 V2000
    1.2124    7.0000    0.0000 N   0  0  0  0  0  0  0  0  0  0  0  0
    1.2124    5.6000    0.0000 C   0  0  0  0  0  0  0  0  0  0  0  0
    2.4249    4.9000    0.0000 N   0  0  0  0  0  0  0  0  0  0  0  0
    3.6373    5.6000    0.0000 C   0  0  0  0  0  0  0  0  0  0  0  0
    3.6373    7.0000    0.0000 C   0  0  0  0  0  0  0  0  0  0  0  0
    2.4249    7.7000    0.0000 C   0  0  0  0  0  0  0  0  0  0  0  0
    4.8497    4.9000    0.0000 N   0  0  0  0  0  0  0  0  0  0  0  0
    6.0622    5.6000    0.0000 C   0  0  0  0  0  0  0  0  0  0  0  0
    6.0622    7.0000    0.0000 C   0  0  0  0  0  0  0  0  0  0  0  0
    4.8497    7.7000    0.0000 C   0  0  0  0  0  0  0  0  0  0  0  0
    0.0000    4.9000    0.0000 N   0  0  0  0  0  0  0  0  0  0  0  0
    7.2746    7.7000    0.0000 C   0  0  0  0  0  0  0  0  0  0  0  0
    7.2746    4.9000    0.0000 N   0  0  0  0  0  0  0  0  0  0  0  0
    7.2746    3.5000    0.0000 C   0  0  0  0  0  0  0  0  0  0  0  0
    8.4870    2.8000    0.0000 N   0  0  0  0  0  0  0  0  0  0  0  0
    6.0622    2.8000    0.0000 O   0  0  0  0  0  0  0  0  0  0  0  0
    8.4870    1.4000    0.0000 C   0  0  0  0  0  0  0  0  0  0  0  0
    9.6995    0.7000    0.0000 C   0  0  0  0  0  0  0  0  0  0  0  0
    7.2746    0.7000    0.0000 C   0  0  0  0  0  0  0  0  0  0  0  0
    8.4870    0.0000    0.0000 C   0  0  0  0  0  0  0  0  0  0  0  0
    8.4870    7.0000    0.0000 C   0  0  0  0  0  0  0  0  0  0  0  0
    9.6995    7.7000    0.0000 C   0  0  0  0  0  0  0  0  0  0  0  0
    9.6995    9.1000    0.0000 C   0  0  0  0  0  0  0  0  0  0  0  0
    8.4870    9.8000    0.0000 C   0  0  0  0  0  0  0  0  0  0  0  0
    7.2746    9.1000    0.0000 C   0  0  0  0  0  0  0  0  0  0  0  0
    8.4870   11.2000    0.0000 O   0  0  0  0  0  0  0  0  0  0  0  0
   10.9119    7.0000    0.0000 O   0  0  0  0  0  0  0  0  0  0  0  0
   12.1244    7.7000    0.0000 C   0  0  0  0  0  0  0  0  0  0  0  0
    9.6995   11.9000    0.0000 C   0  0  0  0  0  0  0  0  0  0  0  0
  1  2  1  0  0  0  0
  2  3  2  0  0  0  0
  3  4  1  0  0  0  0
  4  5  2  0  0  0  0
  5  6  1  0  0  0  0
  6  1  2  0  0  0  0
  4  7  1  0  0  0  0
  7  8  2  0  0  0  0
  8  9  1  0  0  0  0
  9 10  2  0  0  0  0
 10  5  1  0  0  0  0
  2 11  1  0  0  0  0
  9 12  1  0  0  0  0
  8 13  1  0  0  0  0
 13 14  1  0  0  0  0
 14 15  1  0  0  0  0
 14 16  2  0  0  0  0
 15 17  1  0  0  0  0
 17 18  1  0  0  0  0
 17 19  1  0  0  0  0
 17 20  1  0  0  0  0
 12 21  2  0  0  0  0
 21 22  1  0  0  0  0
 22 23  2  0  0  0  0
 23 24  1  0  0  0  0
 24 25  2  0  0  0  0
 25 12  1  0  0  0  0
 24 26  1  0  0  0  0
 22 27  1  0  0  0  0
 27 28  1  0  0  0  0
 26 29  1  0  0  0  0
M  END
>  <Mol_ID> (638)
3375

>  <Formula> (638)
C20H24N6O3

>  <MolWeight> (638)
396.44296

>  <Cat> (638)
S8493

>  <Name> (638)
PD-166866

>  <Synonyms> (638)
N/A

>  <Target> (638)
FGFR

>  <Form> (638)
Free Base

>  <CAS> (638)
192705-79-6

>  <URL> (638)
http://www.selleckchem.com/products/pd-166866.html

$$$$
BLU-554.cdx
csChFnd80/05071909292D

 34 37  0  0  0  0  0  0  0  0999 V2000
    2.4249    4.2000    0.0000 C   0  0  0  0  0  0  0  0  0  0  0  0
    2.4249    2.8000    0.0000 C   0  0  0  0  0  0  0  0  0  0  0  0
    3.6373    2.1000    0.0000 C   0  0  0  0  0  0  0  0  0  0  0  0
    4.8497    2.8000    0.0000 C   0  0  0  0  0  0  0  0  0  0  0  0
    4.8497    4.2000    0.0000 C   0  0  0  0  0  0  0  0  0  0  0  0
    3.6373    4.9000    0.0000 C   0  0  0  0  0  0  0  0  0  0  0  0
    1.2124    4.9000    0.0000 O   0  0  0  0  0  0  0  0  0  0  0  0
    0.0000    4.2000    0.0000 C   0  0  0  0  0  0  0  0  0  0  0  0
    3.6373    0.7000    0.0000 O   0  0  0  0  0  0  0  0  0  0  0  0
    2.4249    0.0000    0.0000 C   0  0  0  0  0  0  0  0  0  0  0  0
    6.0622    2.1000    0.0000 Cl  0  0  0  0  0  0  0  0  0  0  0  0
    3.6373    6.3000    0.0000 Cl  0  0  0  0  0  0  0  0  0  0  0  0
    6.0622    4.9000    0.0000 C   0  0  0  0  0  0  0  0  0  0  0  0
    7.2746    4.2000    0.0000 C   0  0  0  0  0  0  0  0  0  0  0  0
    8.4870    4.9000    0.0000 C   0  0  0  0  0  0  0  0  0  0  0  0
    8.4870    6.3000    0.0000 C   0  0  0  0  0  0  0  0  0  0  0  0
    7.2746    7.0000    0.0000 C   0  0  0  0  0  0  0  0  0  0  0  0
    6.0622    6.3000    0.0000 C   0  0  0  0  0  0  0  0  0  0  0  0
    9.6995    4.2000    0.0000 C   0  0  0  0  0  0  0  0  0  0  0  0
   10.9119    4.9000    0.0000 N   0  0  0  0  0  0  0  0  0  0  0  0
   10.9119    6.3000    0.0000 C   0  0  0  0  0  0  0  0  0  0  0  0
    9.6995    7.0000    0.0000 N   0  0  0  0  0  0  0  0  0  0  0  0
   12.1244    7.0000    0.0000 N   0  0  0  0  0  0  0  0  0  0  0  0
   13.3368    6.3000    0.0000 C   0  0  2  0  0  0  0  0  0  0  0  0
   13.3368    4.9000    0.0000 C   0  0  0  0  0  0  0  0  0  0  0  0
   14.5492    4.2000    0.0000 O   0  0  0  0  0  0  0  0  0  0  0  0
   15.7617    4.9000    0.0000 C   0  0  0  0  0  0  0  0  0  0  0  0
   15.7617    6.3000    0.0000 C   0  0  0  0  0  0  0  0  0  0  0  0
   14.5492    7.0000    0.0000 C   0  0  2  0  0  0  0  0  0  0  0  0
   14.5492    8.4000    0.0000 N   0  0  0  0  0  0  0  0  0  0  0  0
   15.7617    9.1000    0.0000 C   0  0  0  0  0  0  0  0  0  0  0  0
   16.9741    8.4000    0.0000 C   0  0  0  0  0  0  0  0  0  0  0  0
   15.7617   10.5000    0.0000 O   0  0  0  0  0  0  0  0  0  0  0  0
   18.1865    9.1000    0.0000 C   0  0  0  0  0  0  0  0  0  0  0  0
  1  2  2  0  0  0  0
  2  3  1  0  0  0  0
  3  4  2  0  0  0  0
  4  5  1  0  0  0  0
  5  6  2  0  0  0  0
  6  1  1  0  0  0  0
  1  7  1  0  0  0  0
  7  8  1  0  0  0  0
  3  9  1  0  0  0  0
  9 10  1  0  0  0  0
  4 11  1  0  0  0  0
  6 12  1  0  0  0  0
  5 13  1  0  0  0  0
 13 14  2  0  0  0  0
 14 15  1  0  0  0  0
 15 16  2  0  0  0  0
 16 17  1  0  0  0  0
 17 18  2  0  0  0  0
 18 13  1  0  0  0  0
 15 19  1  0  0  0  0
 19 20  2  0  0  0  0
 20 21  1  0  0  0  0
 21 22  2  0  0  0  0
 22 16  1  0  0  0  0
 21 23  1  0  0  0  0
 24 23  1  1  0  0  0
 24 25  1  0  0  0  0
 25 26  1  0  0  0  0
 26 27  1  0  0  0  0
 27 28  1  0  0  0  0
 28 29  1  0  0  0  0
 29 24  1  0  0  0  0
 29 30  1  1  0  0  0
 30 31  1  0  0  0  0
 31 32  1  0  0  0  0
 31 33  2  0  0  0  0
 32 34  2  0  0  0  0
M  END
>  <Mol_ID> (639)
3377

>  <Formula> (639)
C24H24Cl2N4O4

>  <MolWeight> (639)
503.37776

>  <Cat> (639)
S8503

>  <Name> (639)
BLU-554

>  <Synonyms> (639)
N/A

>  <Target> (639)
FGFR

>  <Form> (639)
Free Base

>  <CAS> (639)
1707289-21-1

>  <URL> (639)
http://www.selleckchem.com/products/blu-554.html

$$$$
GSK180736A.cdx
csChFnd80/05071909292D

 27 30  0  0  0  0  0  0  0  0999 V2000
    2.1544    2.1000    0.0000 C   0  0  0  0  0  0  0  0  0  0  0  0
    2.1544    0.7000    0.0000 C   0  0  0  0  0  0  0  0  0  0  0  0
    3.3668    0.0000    0.0000 C   0  0  0  0  0  0  0  0  0  0  0  0
    4.5792    0.7000    0.0000 C   0  0  0  0  0  0  0  0  0  0  0  0
    4.5792    2.1000    0.0000 C   0  0  0  0  0  0  0  0  0  0  0  0
    3.3668    2.8000    0.0000 C   0  0  0  0  0  0  0  0  0  0  0  0
    0.8229    2.5326    0.0000 C   0  0  0  0  0  0  0  0  0  0  0  0
    0.0000    1.4000    0.0000 N   0  0  0  0  0  0  0  0  0  0  0  0
    0.8229    0.2674    0.0000 N   0  0  0  0  0  0  0  0  0  0  0  0
    5.7917    2.8000    0.0000 N   0  0  0  0  0  0  0  0  0  0  0  0
    7.0041    2.1000    0.0000 C   0  0  0  0  0  0  0  0  0  0  0  0
    8.2166    2.8000    0.0000 C   0  0  0  0  0  0  0  0  0  0  0  0
    7.0041    0.7000    0.0000 O   0  0  0  0  0  0  0  0  0  0  0  0
    9.4290    2.1000    0.0000 C   0  0  0  0  0  0  0  0  0  0  0  0
   10.6414    2.8000    0.0000 N   0  0  0  0  0  0  0  0  0  0  0  0
   10.6414    4.2000    0.0000 C   0  0  0  0  0  0  0  0  0  0  0  0
    9.4290    4.9000    0.0000 N   0  0  0  0  0  0  0  0  0  0  0  0
    8.2166    4.2000    0.0000 C   0  0  3  0  0  0  0  0  0  0  0  0
    7.0041    4.9000    0.0000 C   0  0  0  0  0  0  0  0  0  0  0  0
    9.4290    0.7000    0.0000 C   0  0  0  0  0  0  0  0  0  0  0  0
   11.8539    4.9000    0.0000 O   0  0  0  0  0  0  0  0  0  0  0  0
    7.0041    6.3000    0.0000 C   0  0  0  0  0  0  0  0  0  0  0  0
    5.7917    7.0000    0.0000 C   0  0  0  0  0  0  0  0  0  0  0  0
    4.5792    6.3000    0.0000 C   0  0  0  0  0  0  0  0  0  0  0  0
    4.5792    4.9000    0.0000 C   0  0  0  0  0  0  0  0  0  0  0  0
    5.7917    4.2000    0.0000 C   0  0  0  0  0  0  0  0  0  0  0  0
    3.3668    7.0000    0.0000 F   0  0  0  0  0  0  0  0  0  0  0  0
  1  2  2  0  0  0  0
  2  3  1  0  0  0  0
  3  4  2  0  0  0  0
  4  5  1  0  0  0  0
  5  6  2  0  0  0  0
  6  1  1  0  0  0  0
  1  7  1  0  0  0  0
  7  8  2  0  0  0  0
  8  9  1  0  0  0  0
  9  2  1  0  0  0  0
  5 10  1  0  0  0  0
 10 11  1  0  0  0  0
 11 12  1  0  0  0  0
 11 13  2  0  0  0  0
 12 14  2  0  0  0  0
 14 15  1  0  0  0  0
 15 16  1  0  0  0  0
 16 17  1  0  0  0  0
 17 18  1  0  0  0  0
 18 12  1  0  0  0  0
 18 19  1  0  0  0  0
 14 20  1  0  0  0  0
 16 21  2  0  0  0  0
 19 22  2  0  0  0  0
 22 23  1  0  0  0  0
 23 24  2  0  0  0  0
 24 25  1  0  0  0  0
 25 26  2  0  0  0  0
 26 19  1  0  0  0  0
 24 27  1  0  0  0  0
M  END
>  <Mol_ID> (640)
3382

>  <Formula> (640)
C19H16FN5O2

>  <MolWeight> (640)
365.3610432

>  <Cat> (640)
S8489

>  <Name> (640)
GSK180736A

>  <Synonyms> (640)
N/A

>  <Target> (640)
ROCK

>  <Form> (640)
Free Base

>  <CAS> (640)
817194-38-0

>  <URL> (640)
http://www.selleckchem.com/products/gsk180736a.html

$$$$
GSK2256098.cdx
csChFnd80/05071909292D

 29 31  0  0  0  0  0  0  0  0999 V2000
    0.0000    8.4756    0.0000 C   0  0  0  0  0  0  0  0  0  0  0  0
    0.0000    7.0756    0.0000 C   0  0  0  0  0  0  0  0  0  0  0  0
    1.2124    6.3756    0.0000 C   0  0  0  0  0  0  0  0  0  0  0  0
    2.4249    7.0756    0.0000 C   0  0  0  0  0  0  0  0  0  0  0  0
    2.4249    8.4756    0.0000 C   0  0  0  0  0  0  0  0  0  0  0  0
    1.2124    9.1756    0.0000 C   0  0  0  0  0  0  0  0  0  0  0  0
    3.6373    9.1756    0.0000 C   0  0  0  0  0  0  0  0  0  0  0  0
    4.8497    8.4756    0.0000 N   0  0  0  0  0  0  0  0  0  0  0  0
    3.6373   10.5756    0.0000 O   0  0  0  0  0  0  0  0  0  0  0  0
    6.0622    9.1756    0.0000 O   0  0  0  0  0  0  0  0  0  0  0  0
    7.2746    8.4756    0.0000 C   0  0  0  0  0  0  0  0  0  0  0  0
    3.6373    6.3756    0.0000 N   0  0  0  0  0  0  0  0  0  0  0  0
    3.6373    4.9756    0.0000 C   0  0  0  0  0  0  0  0  0  0  0  0
    2.4249    4.2756    0.0000 C   0  0  0  0  0  0  0  0  0  0  0  0
    2.4249    2.8756    0.0000 C   0  0  0  0  0  0  0  0  0  0  0  0
    3.6373    2.1756    0.0000 N   0  0  0  0  0  0  0  0  0  0  0  0
    4.8497    2.8756    0.0000 C   0  0  0  0  0  0  0  0  0  0  0  0
    4.8497    4.2756    0.0000 C   0  0  0  0  0  0  0  0  0  0  0  0
    1.2124    4.9756    0.0000 Cl  0  0  0  0  0  0  0  0  0  0  0  0
    6.0622    2.1756    0.0000 N   0  0  0  0  0  0  0  0  0  0  0  0
    7.2746    2.8756    0.0000 C   0  0  0  0  0  0  0  0  0  0  0  0
    8.5536    2.3062    0.0000 N   0  0  0  0  0  0  0  0  0  0  0  0
    9.4904    3.3466    0.0000 N   0  0  0  0  0  0  0  0  0  0  0  0
    8.7904    4.5590    0.0000 C   0  0  0  0  0  0  0  0  0  0  0  0
    7.4210    4.2680    0.0000 C   0  0  0  0  0  0  0  0  0  0  0  0
    9.3598    5.8380    0.0000 C   0  0  0  0  0  0  0  0  0  0  0  0
    8.8447    0.9368    0.0000 C   0  0  0  0  0  0  0  0  0  0  0  0
    7.8043    0.0000    0.0000 C   0  0  0  0  0  0  0  0  0  0  0  0
   10.1761    0.5042    0.0000 C   0  0  0  0  0  0  0  0  0  0  0  0
  1  2  2  0  0  0  0
  2  3  1  0  0  0  0
  3  4  2  0  0  0  0
  4  5  1  0  0  0  0
  5  6  2  0  0  0  0
  6  1  1  0  0  0  0
  5  7  1  0  0  0  0
  7  8  1  0  0  0  0
  7  9  2  0  0  0  0
  8 10  1  0  0  0  0
 10 11  1  0  0  0  0
  4 12  1  0  0  0  0
 12 13  1  0  0  0  0
 13 14  2  0  0  0  0
 14 15  1  0  0  0  0
 15 16  2  0  0  0  0
 16 17  1  0  0  0  0
 17 18  2  0  0  0  0
 18 13  1  0  0  0  0
 14 19  1  0  0  0  0
 17 20  1  0  0  0  0
 20 21  1  0  0  0  0
 21 22  1  0  0  0  0
 22 23  1  0  0  0  0
 23 24  2  0  0  0  0
 24 25  1  0  0  0  0
 25 21  2  0  0  0  0
 24 26  1  0  0  0  0
 22 27  1  0  0  0  0
 27 28  1  0  0  0  0
 27 29  1  0  0  0  0
M  END
>  <Mol_ID> (641)
3383

>  <Formula> (641)
C20H23ClN6O2

>  <MolWeight> (641)
414.88862

>  <Cat> (641)
S8523

>  <Name> (641)
GSK2256098

>  <Synonyms> (641)
GTPL7939

>  <Target> (641)
FAK

>  <Form> (641)
Free Base

>  <CAS> (641)
1224887-10-8

>  <URL> (641)
http://www.selleckchem.com/products/gsk2256098.html

$$$$
PRT-060318 (PRT318).cdx
csChFnd80/05071909292D

 27 27  0  0  0  0  0  0  0  0999 V2000
   11.4177    6.3000    0.0000 N   0  0  0  0  0  0  0  0  0  0  0  0
   11.4177    4.9000    0.0000 C   0  0  0  0  0  0  0  0  0  0  0  0
   12.6301    4.2000    0.0000 N   0  0  0  0  0  0  0  0  0  0  0  0
   13.8426    4.9000    0.0000 C   0  0  0  0  0  0  0  0  0  0  0  0
   13.8426    6.3000    0.0000 C   0  0  0  0  0  0  0  0  0  0  0  0
   12.6301    7.0000    0.0000 C   0  0  0  0  0  0  0  0  0  0  0  0
   12.6301    8.4000    0.0000 N   0  0  0  0  0  0  0  0  0  0  0  0
   11.4177    9.1000    0.0000 C   0  0  0  0  0  0  0  0  0  0  0  0
   15.0550    7.0000    0.0000 C   0  0  0  0  0  0  0  0  0  0  0  0
   16.2674    6.3000    0.0000 N   0  0  0  0  0  0  0  0  0  0  0  0
   15.0550    8.4000    0.0000 O   0  0  0  0  0  0  0  0  0  0  0  0
   10.2053    4.2000    0.0000 N   0  0  0  0  0  0  0  0  0  0  0  0
   10.2053    2.8000    0.0000 C   0  0  2  0  0  0  0  0  0  0  0  0
    8.9928    2.1000    0.0000 C   0  0  0  0  0  0  0  0  0  0  0  0
    8.9928    0.7000    0.0000 C   0  0  0  0  0  0  0  0  0  0  0  0
   10.2053    0.0000    0.0000 C   0  0  0  0  0  0  0  0  0  0  0  0
   11.4177    0.7000    0.0000 C   0  0  0  0  0  0  0  0  0  0  0  0
   11.4177    2.1000    0.0000 C   0  0  2  0  0  0  0  0  0  0  0  0
   12.6301    2.8000    0.0000 N   0  0  0  0  0  0  0  0  0  0  0  0
   11.4177   10.5000    0.0000 C   0  0  0  0  0  0  0  0  0  0  0  0
   10.2053   11.2000    0.0000 C   0  0  0  0  0  0  0  0  0  0  0  0
    8.9928   10.5000    0.0000 C   0  0  0  0  0  0  0  0  0  0  0  0
    8.9928    9.1000    0.0000 C   0  0  0  0  0  0  0  0  0  0  0  0
   10.2053    8.4000    0.0000 C   0  0  0  0  0  0  0  0  0  0  0  0
    7.7804    8.4000    0.0000 C   0  0  0  0  0  0  0  0  0  0  0  0
    9.7222   33.5837    0.0000 Cl  0  0  0  0  0  0  0  0  0  0  0  0
    0.0000   33.5837    0.0000 Cl  0  0  0  0  0  0  0  0  0  0  0  0
  1  2  2  0  0  0  0
  2  3  1  0  0  0  0
  3  4  2  0  0  0  0
  4  5  1  0  0  0  0
  5  6  2  0  0  0  0
  6  1  1  0  0  0  0
  6  7  1  0  0  0  0
  7  8  1  0  0  0  0
  5  9  1  0  0  0  0
  9 10  1  0  0  0  0
  9 11  2  0  0  0  0
  2 12  1  0  0  0  0
 13 12  1  1  0  0  0
 13 14  1  0  0  0  0
 14 15  1  0  0  0  0
 15 16  1  0  0  0  0
 16 17  1  0  0  0  0
 17 18  1  0  0  0  0
 18 13  1  0  0  0  0
 18 19  1  1  0  0  0
  8 20  2  0  0  0  0
 20 21  1  0  0  0  0
 21 22  2  0  0  0  0
 22 23  1  0  0  0  0
 23 24  2  0  0  0  0
 24  8  1  0  0  0  0
 23 25  1  0  0  0  0
M  END
>  <Mol_ID> (642)
3386

>  <Formula> (642)
C18H26Cl2N6O

>  <MolWeight> (642)
413.34464

>  <Cat> (642)
S7738

>  <Name> (642)
PRT-060318 (PRT318)

>  <Synonyms> (642)
PRT318

>  <Target> (642)
Syk

>  <Form> (642)
hydrochloride salt

>  <CAS> (642)
1194961-19-7 (free base)

>  <URL> (642)
http://www.selleckchem.com/products/prt-060318-prt318-3hcl.html

$$$$
CFI-400945.cdx
csChFnd80/05071909292D

 40 46  0  0  0  0  0  0  0  0999 V2000
    4.8282    4.0388    0.0000 C   0  0  0  0  0  0  0  0  0  0  0  0
    4.8282    2.6388    0.0000 C   0  0  0  0  0  0  0  0  0  0  0  0
    6.0406    1.9388    0.0000 C   0  0  0  0  0  0  0  0  0  0  0  0
    7.2531    2.6388    0.0000 C   0  0  0  0  0  0  0  0  0  0  0  0
    7.2531    4.0388    0.0000 C   0  0  0  0  0  0  0  0  0  0  0  0
    6.0406    4.7388    0.0000 C   0  0  0  0  0  0  0  0  0  0  0  0
    8.5845    2.2062    0.0000 N   0  0  0  0  0  0  0  0  0  0  0  0
    9.4074    3.3388    0.0000 N   0  0  0  0  0  0  0  0  0  0  0  0
    8.5845    4.4715    0.0000 C   0  0  0  0  0  0  0  0  0  0  0  0
    3.6157    1.9388    0.0000 C   0  0  1  0  0  0  0  0  0  0  0  0
    9.0172    5.8029    0.0000 C   0  0  0  0  0  0  0  0  0  0  0  0
    8.0804    6.8433    0.0000 C   0  0  0  0  0  0  0  0  0  0  0  0
    8.5130    8.1748    0.0000 C   0  0  0  0  0  0  0  0  0  0  0  0
    9.8824    8.4659    0.0000 C   0  0  0  0  0  0  0  0  0  0  0  0
   10.3150    9.7974    0.0000 C   0  0  0  0  0  0  0  0  0  0  0  0
    9.3782   10.8378    0.0000 C   0  0  0  0  0  0  0  0  0  0  0  0
    8.0088   10.5467    0.0000 C   0  0  0  0  0  0  0  0  0  0  0  0
    7.5762    9.2152    0.0000 C   0  0  0  0  0  0  0  0  0  0  0  0
    9.8109   12.1693    0.0000 C   0  0  0  0  0  0  0  0  0  0  0  0
    8.8741   13.2097    0.0000 N   0  0  0  0  0  0  0  0  0  0  0  0
    9.3067   14.5411    0.0000 C   0  0  0  0  0  0  0  0  0  0  0  0
    8.3699   15.5815    0.0000 C   0  0  1  0  0  0  0  0  0  0  0  0
    7.0005   15.2905    0.0000 O   0  0  0  0  0  0  0  0  0  0  0  0
    6.5679   13.9590    0.0000 C   0  0  1  0  0  0  0  0  0  0  0  0
    7.5047   12.9186    0.0000 C   0  0  0  0  0  0  0  0  0  0  0  0
    5.1985   13.6679    0.0000 C   0  0  0  0  0  0  0  0  0  0  0  0
    8.8025   16.9130    0.0000 C   0  0  0  0  0  0  0  0  0  0  0  0
    2.2157    1.9388    0.0000 C   0  0  2  0  0  0  0  0  0  0  0  0
    2.9157    0.7264    0.0000 C   0  0  0  0  0  0  0  0  0  0  0  0
    2.0694    3.3312    0.0000 C   0  0  0  0  0  0  0  0  0  0  0  0
    0.7000    3.6222    0.0000 C   0  0  0  0  0  0  0  0  0  0  0  0
    0.0000    2.4098    0.0000 N   0  0  0  0  0  0  0  0  0  0  0  0
    0.9368    1.3694    0.0000 C   0  0  0  0  0  0  0  0  0  0  0  0
    3.0062    4.3716    0.0000 C   0  0  0  0  0  0  0  0  0  0  0  0
    2.5736    5.7030    0.0000 C   0  0  0  0  0  0  0  0  0  0  0  0
    1.2042    5.9941    0.0000 C   0  0  0  0  0  0  0  0  0  0  0  0
    0.2674    4.9537    0.0000 C   0  0  0  0  0  0  0  0  0  0  0  0
    3.5103    6.7435    0.0000 O   0  0  0  0  0  0  0  0  0  0  0  0
    3.0777    8.0749    0.0000 C   0  0  0  0  0  0  0  0  0  0  0  0
    0.6457    0.0000    0.0000 O   0  0  0  0  0  0  0  0  0  0  0  0
  1  2  2  0  0  0  0
  2  3  1  0  0  0  0
  3  4  2  0  0  0  0
  4  5  1  0  0  0  0
  5  6  2  0  0  0  0
  6  1  1  0  0  0  0
  4  7  1  0  0  0  0
  7  8  1  0  0  0  0
  8  9  2  0  0  0  0
  9  5  1  0  0  0  0
 10  2  1  6  0  0  0
  9 11  1  0  0  0  0
 11 12  2  0  0  0  0
 12 13  1  0  0  0  0
 13 14  2  0  0  0  0
 14 15  1  0  0  0  0
 15 16  2  0  0  0  0
 16 17  1  0  0  0  0
 17 18  2  0  0  0  0
 18 13  1  0  0  0  0
 16 19  1  0  0  0  0
 19 20  1  0  0  0  0
 20 21  1  0  0  0  0
 21 22  1  0  0  0  0
 22 23  1  0  0  0  0
 23 24  1  0  0  0  0
 24 25  1  0  0  0  0
 25 20  1  0  0  0  0
 24 26  1  1  0  0  0
 22 27  1  1  0  0  0
 10 28  1  0  0  0  0
 28 29  1  0  0  0  0
 29 10  1  0  0  0  0
 28 30  1  6  0  0  0
 30 31  2  0  0  0  0
 31 32  1  0  0  0  0
 32 33  1  0  0  0  0
 28 33  1  1  0  0  0
 30 34  1  0  0  0  0
 34 35  2  0  0  0  0
 35 36  1  0  0  0  0
 36 37  2  0  0  0  0
 37 31  1  0  0  0  0
 35 38  1  0  0  0  0
 38 39  1  0  0  0  0
 33 40  2  0  0  0  0
M  END
>  <Mol_ID> (643)
3388

>  <Formula> (643)
C33H34N4O3

>  <MolWeight> (643)
534.64806

>  <Cat> (643)
S7552

>  <Name> (643)
CFI-400945

>  <Synonyms> (643)
N/A

>  <Target> (643)
PLK

>  <Form> (643)
Free Base

>  <CAS> (643)
1338806-73-7

>  <URL> (643)
http://www.selleckchem.com/products/cfi-400945.html

$$$$
YU238259.cdx
csChFnd80/05071909292D

 31 33  0  0  0  0  0  0  0  0999 V2000
    2.4249    4.2000    0.0000 C   0  0  0  0  0  0  0  0  0  0  0  0
    2.4249    2.8000    0.0000 C   0  0  0  0  0  0  0  0  0  0  0  0
    3.6373    2.1000    0.0000 C   0  0  0  0  0  0  0  0  0  0  0  0
    4.8497    2.8000    0.0000 C   0  0  0  0  0  0  0  0  0  0  0  0
    4.8497    4.2000    0.0000 C   0  0  0  0  0  0  0  0  0  0  0  0
    3.6373    4.9000    0.0000 C   0  0  0  0  0  0  0  0  0  0  0  0
    1.2124    2.1000    0.0000 O   0  0  0  0  0  0  0  0  0  0  0  0
    6.0622    4.9000    0.0000 S   0  0  0  0  0  0  0  0  0  0  0  0
    7.2746    4.2000    0.0000 N   0  0  0  0  0  0  0  0  0  0  0  0
    8.4870    4.9000    0.0000 C   0  0  0  0  0  0  0  0  0  0  0  0
    9.6995    4.2000    0.0000 C   0  0  0  0  0  0  0  0  0  0  0  0
    9.6995    2.8000    0.0000 C   0  0  0  0  0  0  0  0  0  0  0  0
   10.9119    2.1000    0.0000 C   0  0  0  0  0  0  0  0  0  0  0  0
   12.1244    2.8000    0.0000 C   0  0  0  0  0  0  0  0  0  0  0  0
   12.1244    4.2000    0.0000 C   0  0  0  0  0  0  0  0  0  0  0  0
   10.9119    4.9000    0.0000 C   0  0  0  0  0  0  0  0  0  0  0  0
   13.3368    2.1000    0.0000 C   0  0  0  0  0  0  0  0  0  0  0  0
   14.5492    2.8000    0.0000 N   0  0  0  0  0  0  0  0  0  0  0  0
   13.3368    0.7000    0.0000 O   0  0  0  0  0  0  0  0  0  0  0  0
   15.7617    2.1000    0.0000 C   0  0  0  0  0  0  0  0  0  0  0  0
   16.9741    2.8000    0.0000 C   0  0  0  0  0  0  0  0  0  0  0  0
   18.1865    2.1000    0.0000 C   0  0  0  0  0  0  0  0  0  0  0  0
   18.1865    0.7000    0.0000 C   0  0  0  0  0  0  0  0  0  0  0  0
   19.3990    0.0000    0.0000 C   0  0  0  0  0  0  0  0  0  0  0  0
   20.6114    0.7000    0.0000 C   0  0  0  0  0  0  0  0  0  0  0  0
   20.6114    2.1000    0.0000 C   0  0  0  0  0  0  0  0  0  0  0  0
   19.3990    2.8000    0.0000 N   0  0  0  0  0  0  0  0  0  0  0  0
    0.0000    2.8000    0.0000 C   0  0  0  0  0  0  0  0  0  0  0  0
   21.8238    0.0000    0.0000 Cl  0  0  0  0  0  0  0  0  0  0  0  0
    4.8497    5.6000    0.0000 O   0  0  0  0  0  0  0  0  0  0  0  0
    7.2746    5.6000    0.0000 O   0  0  0  0  0  0  0  0  0  0  0  0
  1  2  2  0  0  0  0
  2  3  1  0  0  0  0
  3  4  2  0  0  0  0
  4  5  1  0  0  0  0
  5  6  2  0  0  0  0
  6  1  1  0  0  0  0
  2  7  1  0  0  0  0
  5  8  1  0  0  0  0
  8  9  1  0  0  0  0
  9 10  1  0  0  0  0
 10 11  1  0  0  0  0
 11 12  2  0  0  0  0
 12 13  1  0  0  0  0
 13 14  2  0  0  0  0
 14 15  1  0  0  0  0
 15 16  2  0  0  0  0
 16 11  1  0  0  0  0
 14 17  1  0  0  0  0
 17 18  1  0  0  0  0
 17 19  2  0  0  0  0
 18 20  1  0  0  0  0
 20 21  1  0  0  0  0
 21 22  1  0  0  0  0
 22 23  2  0  0  0  0
 23 24  1  0  0  0  0
 24 25  2  0  0  0  0
 25 26  1  0  0  0  0
 26 27  2  0  0  0  0
 27 22  1  0  0  0  0
  7 28  1  0  0  0  0
 25 29  1  0  0  0  0
  8 30  2  0  0  0  0
  8 31  2  0  0  0  0
M  END
>  <Mol_ID> (644)
3391

>  <Formula> (644)
C22H22ClN3O4S

>  <MolWeight> (644)
459.94578

>  <Cat> (644)
S8379

>  <Name> (644)
YU238259

>  <Synonyms> (644)
N/A

>  <Target> (644)
DNA-PK

>  <Form> (644)
Free Base

>  <CAS> (644)
1943733-16-1

>  <URL> (644)
http://www.selleckchem.com/products/yu238259.html

$$$$
CRT0066101.cdx
csChFnd80/05071909292D

 27 27  0  0  0  0  0  0  0  0999 V2000
    7.1577    4.2000    0.0000 C   0  0  0  0  0  0  0  0  0  0  0  0
    7.1577    2.8000    0.0000 C   0  0  0  0  0  0  0  0  0  0  0  0
    8.3701    2.1000    0.0000 N   0  0  0  0  0  0  0  0  0  0  0  0
    9.5826    2.8000    0.0000 C   0  0  0  0  0  0  0  0  0  0  0  0
    9.5826    4.2000    0.0000 N   0  0  0  0  0  0  0  0  0  0  0  0
    8.3701    4.9000    0.0000 C   0  0  0  0  0  0  0  0  0  0  0  0
    8.3701    6.3000    0.0000 N   0  0  0  0  0  0  0  0  0  0  0  0
    9.5826    7.0000    0.0000 C   0  0  0  0  0  0  0  0  0  0  0  0
    9.5826    8.4000    0.0000 C   0  0  1  0  0  0  0  0  0  0  0  0
    8.3701    9.1000    0.0000 C   0  0  0  0  0  0  0  0  0  0  0  0
    7.1577    8.4000    0.0000 C   0  0  0  0  0  0  0  0  0  0  0  0
   10.7950    9.1000    0.0000 N   0  0  0  0  0  0  0  0  0  0  0  0
   10.7950    2.1000    0.0000 C   0  0  0  0  0  0  0  0  0  0  0  0
   10.7950    0.7000    0.0000 C   0  0  0  0  0  0  0  0  0  0  0  0
   12.0074    0.0000    0.0000 C   0  0  0  0  0  0  0  0  0  0  0  0
   13.2199    0.7000    0.0000 C   0  0  0  0  0  0  0  0  0  0  0  0
   13.2199    2.1000    0.0000 C   0  0  0  0  0  0  0  0  0  0  0  0
   12.0074    2.8000    0.0000 C   0  0  0  0  0  0  0  0  0  0  0  0
    9.5826    0.0000    0.0000 O   0  0  0  0  0  0  0  0  0  0  0  0
   14.4323    2.8000    0.0000 C   0  0  0  0  0  0  0  0  0  0  0  0
   15.7113    2.2306    0.0000 C   0  0  0  0  0  0  0  0  0  0  0  0
   16.6480    3.2710    0.0000 N   0  0  0  0  0  0  0  0  0  0  0  0
   15.9480    4.4834    0.0000 N   0  0  0  0  0  0  0  0  0  0  0  0
   14.5786    4.1923    0.0000 C   0  0  0  0  0  0  0  0  0  0  0  0
   16.5175    5.7624    0.0000 C   0  0  0  0  0  0  0  0  0  0  0  0
    9.7222   31.0042    0.0000 Cl  0  0  0  0  0  0  0  0  0  0  0  0
    0.0000   31.0042    0.0000 Cl  0  0  0  0  0  0  0  0  0  0  0  0
  1  2  2  0  0  0  0
  2  3  1  0  0  0  0
  3  4  2  0  0  0  0
  4  5  1  0  0  0  0
  5  6  2  0  0  0  0
  6  1  1  0  0  0  0
  6  7  1  0  0  0  0
  7  8  1  0  0  0  0
  8  9  1  0  0  0  0
  9 10  1  1  0  0  0
 10 11  1  0  0  0  0
  9 12  1  0  0  0  0
  4 13  1  0  0  0  0
 13 14  2  0  0  0  0
 14 15  1  0  0  0  0
 15 16  2  0  0  0  0
 16 17  1  0  0  0  0
 17 18  2  0  0  0  0
 18 13  1  0  0  0  0
 14 19  1  0  0  0  0
 17 20  1  0  0  0  0
 20 21  1  0  0  0  0
 21 22  2  0  0  0  0
 22 23  1  0  0  0  0
 23 24  1  0  0  0  0
 24 20  2  0  0  0  0
 23 25  1  0  0  0  0
M  END
>  <Mol_ID> (645)
3400

>  <Formula> (645)
C18H24Cl2N6O

>  <MolWeight> (645)
411.32876

>  <Cat> (645)
S8366

>  <Name> (645)
CRT0066101

>  <Synonyms> (645)
N/A

>  <Target> (645)
PKD1,PKD3,PKD2

>  <Form> (645)
dihydrochloride 

>  <CAS> (645)
1883545-60-5

>  <URL> (645)
http://www.selleckchem.com/products/crt0066101.html

$$$$
LTURM34.cdx
csChFnd80/05071909292D

 30 35  0  0  0  0  0  0  0  0999 V2000
    0.0000    7.7000    0.0000 C   0  0  0  0  0  0  0  0  0  0  0  0
    0.0000    6.3000    0.0000 C   0  0  0  0  0  0  0  0  0  0  0  0
    1.2124    5.6000    0.0000 C   0  0  0  0  0  0  0  0  0  0  0  0
    2.4249    6.3000    0.0000 C   0  0  0  0  0  0  0  0  0  0  0  0
    2.4249    7.7000    0.0000 C   0  0  0  0  0  0  0  0  0  0  0  0
    1.2124    8.4000    0.0000 C   0  0  0  0  0  0  0  0  0  0  0  0
    3.7564    5.8674    0.0000 S   0  0  0  0  0  0  0  0  0  0  0  0
    4.5792    7.0000    0.0000 C   0  0  0  0  0  0  0  0  0  0  0  0
    3.7564    8.1326    0.0000 C   0  0  0  0  0  0  0  0  0  0  0  0
    5.9716    7.1463    0.0000 C   0  0  0  0  0  0  0  0  0  0  0  0
    6.5410    8.4253    0.0000 C   0  0  0  0  0  0  0  0  0  0  0  0
    5.7181    9.5579    0.0000 C   0  0  0  0  0  0  0  0  0  0  0  0
    4.3258    9.4116    0.0000 C   0  0  0  0  0  0  0  0  0  0  0  0
    1.2124    4.2000    0.0000 C   0  0  0  0  0  0  0  0  0  0  0  0
    0.0000    3.5000    0.0000 C   0  0  0  0  0  0  0  0  0  0  0  0
    0.0000    2.1000    0.0000 C   0  0  0  0  0  0  0  0  0  0  0  0
    1.2124    1.4000    0.0000 C   0  0  0  0  0  0  0  0  0  0  0  0
    2.4249    2.1000    0.0000 C   0  0  0  0  0  0  0  0  0  0  0  0
    2.4249    3.5000    0.0000 C   0  0  0  0  0  0  0  0  0  0  0  0
    3.6373    1.4000    0.0000 C   0  0  0  0  0  0  0  0  0  0  0  0
    4.8497    2.1000    0.0000 N   0  0  0  0  0  0  0  0  0  0  0  0
    4.8497    3.5000    0.0000 C   0  0  0  0  0  0  0  0  0  0  0  0
    3.6373    4.2000    0.0000 O   0  0  0  0  0  0  0  0  0  0  0  0
    3.6373    0.0000    0.0000 O   0  0  0  0  0  0  0  0  0  0  0  0
    6.0622    4.2000    0.0000 N   0  0  0  0  0  0  0  0  0  0  0  0
    7.2746    3.5000    0.0000 C   0  0  0  0  0  0  0  0  0  0  0  0
    8.4870    4.2000    0.0000 C   0  0  0  0  0  0  0  0  0  0  0  0
    8.4870    5.6000    0.0000 O   0  0  0  0  0  0  0  0  0  0  0  0
    7.2746    6.3000    0.0000 C   0  0  0  0  0  0  0  0  0  0  0  0
    6.0622    5.6000    0.0000 C   0  0  0  0  0  0  0  0  0  0  0  0
  1  2  2  0  0  0  0
  2  3  1  0  0  0  0
  3  4  2  0  0  0  0
  4  5  1  0  0  0  0
  5  6  2  0  0  0  0
  6  1  1  0  0  0  0
  4  7  1  0  0  0  0
  7  8  1  0  0  0  0
  8  9  2  0  0  0  0
  9  5  1  0  0  0  0
  8 10  1  0  0  0  0
 10 11  2  0  0  0  0
 11 12  1  0  0  0  0
 12 13  2  0  0  0  0
 13  9  1  0  0  0  0
  3 14  1  0  0  0  0
 14 15  2  0  0  0  0
 15 16  1  0  0  0  0
 16 17  2  0  0  0  0
 17 18  1  0  0  0  0
 18 19  2  0  0  0  0
 19 14  1  0  0  0  0
 18 20  1  0  0  0  0
 20 21  1  0  0  0  0
 21 22  2  0  0  0  0
 22 23  1  0  0  0  0
 23 19  1  0  0  0  0
 20 24  2  0  0  0  0
 22 25  1  0  0  0  0
 25 26  1  0  0  0  0
 26 27  1  0  0  0  0
 27 28  1  0  0  0  0
 28 29  1  0  0  0  0
 29 30  1  0  0  0  0
 30 25  1  0  0  0  0
M  END
>  <Mol_ID> (646)
3401

>  <Formula> (646)
C24H18N2O3S

>  <MolWeight> (646)
414.47632

>  <Cat> (646)
S8427

>  <Name> (646)
LTURM34

>  <Synonyms> (646)
N/A

>  <Target> (646)
DNA-PK

>  <Form> (646)
free base

>  <CAS> (646)
1879887-96-3

>  <URL> (646)
http://www.selleckchem.com/products/lturm34.html

$$$$
AD80.cdx
csChFnd80/05071909292D

 34 37  0  0  0  0  0  0  0  0999 V2000
    0.0000    4.2045    0.0000 N   0  0  0  0  0  0  0  0  0  0  0  0
    0.0000    2.8045    0.0000 C   0  0  0  0  0  0  0  0  0  0  0  0
    1.2124    2.1045    0.0000 N   0  0  0  0  0  0  0  0  0  0  0  0
    2.4249    2.8045    0.0000 C   0  0  0  0  0  0  0  0  0  0  0  0
    2.4249    4.2045    0.0000 C   0  0  0  0  0  0  0  0  0  0  0  0
    1.2124    4.9045    0.0000 C   0  0  0  0  0  0  0  0  0  0  0  0
    3.7563    2.3719    0.0000 N   0  0  0  0  0  0  0  0  0  0  0  0
    4.5792    3.5045    0.0000 N   0  0  0  0  0  0  0  0  0  0  0  0
    3.7563    4.6371    0.0000 C   0  0  0  0  0  0  0  0  0  0  0  0
    1.2124    6.3045    0.0000 N   0  0  0  0  0  0  0  0  0  0  0  0
    4.1890    5.9686    0.0000 C   0  0  0  0  0  0  0  0  0  0  0  0
    4.1890    1.0404    0.0000 C   0  0  0  0  0  0  0  0  0  0  0  0
    3.2522    0.0000    0.0000 C   0  0  0  0  0  0  0  0  0  0  0  0
    5.5584    0.7493    0.0000 C   0  0  0  0  0  0  0  0  0  0  0  0
    5.5584    6.2597    0.0000 C   0  0  0  0  0  0  0  0  0  0  0  0
    5.9910    7.5912    0.0000 C   0  0  0  0  0  0  0  0  0  0  0  0
    5.0542    8.6316    0.0000 C   0  0  0  0  0  0  0  0  0  0  0  0
    3.6848    8.3405    0.0000 C   0  0  0  0  0  0  0  0  0  0  0  0
    3.2522    7.0090    0.0000 C   0  0  0  0  0  0  0  0  0  0  0  0
    5.4868    9.9630    0.0000 N   0  0  0  0  0  0  0  0  0  0  0  0
    6.8563   10.2541    0.0000 C   0  0  0  0  0  0  0  0  0  0  0  0
    7.2889   11.5856    0.0000 O   0  0  0  0  0  0  0  0  0  0  0  0
    7.7930    9.2137    0.0000 N   0  0  0  0  0  0  0  0  0  0  0  0
    9.1624    9.5048    0.0000 C   0  0  0  0  0  0  0  0  0  0  0  0
   10.0992    8.4644    0.0000 C   0  0  0  0  0  0  0  0  0  0  0  0
   11.4686    8.7555    0.0000 C   0  0  0  0  0  0  0  0  0  0  0  0
   11.9013   10.0869    0.0000 C   0  0  0  0  0  0  0  0  0  0  0  0
   10.9645   11.1274    0.0000 C   0  0  0  0  0  0  0  0  0  0  0  0
    9.5951   10.8363    0.0000 C   0  0  0  0  0  0  0  0  0  0  0  0
    8.6583   11.8767    0.0000 F   0  0  0  0  0  0  0  0  0  0  0  0
   12.4054    7.7151    0.0000 C   0  0  0  0  0  0  0  0  0  0  0  0
   11.9728    6.3836    0.0000 F   0  0  0  0  0  0  0  0  0  0  0  0
   13.7748    8.0061    0.0000 F   0  0  0  0  0  0  0  0  0  0  0  0
   13.3954    6.7251    0.0000 F   0  0  0  0  0  0  0  0  0  0  0  0
  1  2  2  0  0  0  0
  2  3  1  0  0  0  0
  3  4  2  0  0  0  0
  4  5  1  0  0  0  0
  5  6  2  0  0  0  0
  6  1  1  0  0  0  0
  4  7  1  0  0  0  0
  7  8  1  0  0  0  0
  8  9  2  0  0  0  0
  9  5  1  0  0  0  0
  6 10  1  0  0  0  0
  9 11  1  0  0  0  0
  7 12  1  0  0  0  0
 12 13  1  0  0  0  0
 12 14  1  0  0  0  0
 11 15  2  0  0  0  0
 15 16  1  0  0  0  0
 16 17  2  0  0  0  0
 17 18  1  0  0  0  0
 18 19  2  0  0  0  0
 19 11  1  0  0  0  0
 17 20  1  0  0  0  0
 20 21  1  0  0  0  0
 21 22  2  0  0  0  0
 21 23  1  0  0  0  0
 23 24  1  0  0  0  0
 24 25  2  0  0  0  0
 25 26  1  0  0  0  0
 26 27  2  0  0  0  0
 27 28  1  0  0  0  0
 28 29  2  0  0  0  0
 29 24  1  0  0  0  0
 29 30  1  0  0  0  0
 26 31  1  0  0  0  0
 31 32  1  0  0  0  0
 31 33  1  0  0  0  0
 31 34  1  0  0  0  0
M  END
>  <Mol_ID> (647)
3405

>  <Formula> (647)
C22H19F4N7O

>  <MolWeight> (647)
473.4261728

>  <Cat> (647)
S8518

>  <Name> (647)
AD80

>  <Synonyms> (647)
N/A

>  <Target> (647)
Raf,Src,S6 Kinase,RET V804M,RET V804L,RET wt

>  <Form> (647)
free base

>  <CAS> (647)
1384071-99-1

>  <URL> (647)
http://www.selleckchem.com/products/ad80.html

$$$$
RXDX-106 (CEP-40783).cdx
csChFnd80/05071909292D

 43 47  0  0  0  0  0  0  0  0999 V2000
    1.2124    6.3000    0.0000 C   0  0  0  0  0  0  0  0  0  0  0  0
    1.2124    4.9000    0.0000 C   0  0  0  0  0  0  0  0  0  0  0  0
    2.4249    4.2000    0.0000 C   0  0  0  0  0  0  0  0  0  0  0  0
    3.6373    4.9000    0.0000 C   0  0  0  0  0  0  0  0  0  0  0  0
    3.6373    6.3000    0.0000 C   0  0  0  0  0  0  0  0  0  0  0  0
    2.4249    7.0000    0.0000 C   0  0  0  0  0  0  0  0  0  0  0  0
    0.0000    7.0000    0.0000 F   0  0  0  0  0  0  0  0  0  0  0  0
    4.8497    4.2000    0.0000 N   0  0  0  0  0  0  0  0  0  0  0  0
    4.8497    2.8000    0.0000 C   0  0  0  0  0  0  0  0  0  0  0  0
    6.0622    2.1000    0.0000 N   0  0  0  0  0  0  0  0  0  0  0  0
    7.2746    2.8000    0.0000 C   0  0  0  0  0  0  0  0  0  0  0  0
    7.2746    4.2000    0.0000 C   0  0  0  0  0  0  0  0  0  0  0  0
    6.0622    4.9000    0.0000 C   0  0  0  0  0  0  0  0  0  0  0  0
    6.0622    6.3000    0.0000 O   0  0  0  0  0  0  0  0  0  0  0  0
    3.6373    2.1000    0.0000 O   0  0  0  0  0  0  0  0  0  0  0  0
    6.0622    0.7000    0.0000 C   0  0  0  0  0  0  0  0  0  0  0  0
    4.8497    0.0000    0.0000 C   0  0  0  0  0  0  0  0  0  0  0  0
    7.2746    0.0000    0.0000 C   0  0  0  0  0  0  0  0  0  0  0  0
    8.4870    4.9000    0.0000 C   0  0  0  0  0  0  0  0  0  0  0  0
    8.4870    6.3000    0.0000 O   0  0  0  0  0  0  0  0  0  0  0  0
    9.6995    4.2000    0.0000 N   0  0  0  0  0  0  0  0  0  0  0  0
   10.9119    4.9000    0.0000 C   0  0  0  0  0  0  0  0  0  0  0  0
   12.1244    4.2000    0.0000 C   0  0  0  0  0  0  0  0  0  0  0  0
   13.3368    4.9000    0.0000 C   0  0  0  0  0  0  0  0  0  0  0  0
   13.3368    6.3000    0.0000 C   0  0  0  0  0  0  0  0  0  0  0  0
   12.1244    7.0000    0.0000 C   0  0  0  0  0  0  0  0  0  0  0  0
   10.9119    6.3000    0.0000 C   0  0  0  0  0  0  0  0  0  0  0  0
   14.5492    7.0000    0.0000 O   0  0  0  0  0  0  0  0  0  0  0  0
   14.5492    4.2000    0.0000 F   0  0  0  0  0  0  0  0  0  0  0  0
   14.5492    8.4000    0.0000 C   0  0  0  0  0  0  0  0  0  0  0  0
   15.7617    9.1000    0.0000 C   0  0  0  0  0  0  0  0  0  0  0  0
   15.7617   10.5000    0.0000 C   0  0  0  0  0  0  0  0  0  0  0  0
   14.5492   11.2000    0.0000 N   0  0  0  0  0  0  0  0  0  0  0  0
   13.3368   10.5000    0.0000 C   0  0  0  0  0  0  0  0  0  0  0  0
   13.3368    9.1000    0.0000 C   0  0  0  0  0  0  0  0  0  0  0  0
   12.1244   11.2000    0.0000 C   0  0  0  0  0  0  0  0  0  0  0  0
   10.9119   10.5000    0.0000 C   0  0  0  0  0  0  0  0  0  0  0  0
   10.9119    9.1000    0.0000 C   0  0  0  0  0  0  0  0  0  0  0  0
   12.1244    8.4000    0.0000 C   0  0  0  0  0  0  0  0  0  0  0  0
    9.6995   11.2000    0.0000 O   0  0  0  0  0  0  0  0  0  0  0  0
    8.4870   10.5000    0.0000 C   0  0  0  0  0  0  0  0  0  0  0  0
    9.6995    8.4000    0.0000 O   0  0  0  0  0  0  0  0  0  0  0  0
    8.4870    9.1000    0.0000 C   0  0  0  0  0  0  0  0  0  0  0  0
  1  2  2  0  0  0  0
  2  3  1  0  0  0  0
  3  4  2  0  0  0  0
  4  5  1  0  0  0  0
  5  6  2  0  0  0  0
  6  1  1  0  0  0  0
  1  7  1  0  0  0  0
  4  8  1  0  0  0  0
  8  9  1  0  0  0  0
  9 10  1  0  0  0  0
 10 11  1  0  0  0  0
 11 12  2  0  0  0  0
 12 13  1  0  0  0  0
 13  8  1  0  0  0  0
 13 14  2  0  0  0  0
  9 15  2  0  0  0  0
 10 16  1  0  0  0  0
 16 17  1  0  0  0  0
 16 18  1  0  0  0  0
 12 19  1  0  0  0  0
 19 20  2  0  0  0  0
 19 21  1  0  0  0  0
 21 22  1  0  0  0  0
 22 23  2  0  0  0  0
 23 24  1  0  0  0  0
 24 25  2  0  0  0  0
 25 26  1  0  0  0  0
 26 27  2  0  0  0  0
 27 22  1  0  0  0  0
 25 28  1  0  0  0  0
 24 29  1  0  0  0  0
 28 30  1  0  0  0  0
 30 31  2  0  0  0  0
 31 32  1  0  0  0  0
 32 33  2  0  0  0  0
 33 34  1  0  0  0  0
 34 35  2  0  0  0  0
 35 30  1  0  0  0  0
 34 36  1  0  0  0  0
 36 37  2  0  0  0  0
 37 38  1  0  0  0  0
 38 39  2  0  0  0  0
 39 35  1  0  0  0  0
 40 41  1  0  0  0  0
 40 37  1  0  0  0  0
 38 42  1  0  0  0  0
 42 43  1  0  0  0  0
M  END
>  <Mol_ID> (648)
3409

>  <Formula> (648)
C31H26F2N4O6

>  <MolWeight> (648)
588.5581464

>  <Cat> (648)
S8570

>  <Name> (648)
RXDX-106 (CEP-40783)

>  <Synonyms> (648)
N/A

>  <Target> (648)
Axl,c-Met,Tyro3,MER,Tyro3,VEGFR2

>  <Form> (648)
free base

>  <CAS> (648)
1437321-24-8

>  <URL> (648)
http://www.selleckchem.com/products/rxdx-106-cep-40783.html

$$$$
GDC-0326.cdx
csChFnd80/05071909292D

 28 31  0  0  0  0  0  0  0  0999 V2000
    3.6373    7.8385    0.0000 C   0  0  0  0  0  0  0  0  0  0  0  0
    3.6373    6.4385    0.0000 C   0  0  0  0  0  0  0  0  0  0  0  0
    4.8497    5.7385    0.0000 C   0  0  0  0  0  0  0  0  0  0  0  0
    6.0622    6.4385    0.0000 C   0  0  0  0  0  0  0  0  0  0  0  0
    6.0622    7.8385    0.0000 C   0  0  0  0  0  0  0  0  0  0  0  0
    4.8497    8.5385    0.0000 C   0  0  0  0  0  0  0  0  0  0  0  0
    7.1567    5.5656    0.0000 C   0  0  0  0  0  0  0  0  0  0  0  0
    8.5216    5.8772    0.0000 N   0  0  0  0  0  0  0  0  0  0  0  0
    9.1291    7.1385    0.0000 C   0  0  0  0  0  0  0  0  0  0  0  0
    8.5216    8.3999    0.0000 C   0  0  0  0  0  0  0  0  0  0  0  0
    7.1567    8.7114    0.0000 O   0  0  0  0  0  0  0  0  0  0  0  0
    7.0312    4.1713    0.0000 N   0  0  0  0  0  0  0  0  0  0  0  0
    8.3186    3.6210    0.0000 C   0  0  0  0  0  0  0  0  0  0  0  0
    9.2397    4.6753    0.0000 C   0  0  0  0  0  0  0  0  0  0  0  0
    8.6301    2.2561    0.0000 C   0  0  0  0  0  0  0  0  0  0  0  0
    7.7090    1.2018    0.0000 N   0  0  0  0  0  0  0  0  0  0  0  0
    8.4271    0.0000    0.0000 N   0  0  0  0  0  0  0  0  0  0  0  0
    9.7920    0.3115    0.0000 C   0  0  0  0  0  0  0  0  0  0  0  0
    9.9175    1.7059    0.0000 N   0  0  0  0  0  0  0  0  0  0  0  0
    6.3146    1.3273    0.0000 C   0  0  0  0  0  0  0  0  0  0  0  0
    5.5088    0.1825    0.0000 C   0  0  0  0  0  0  0  0  0  0  0  0
    5.7261    2.5976    0.0000 C   0  0  0  0  0  0  0  0  0  0  0  0
    2.4249    8.5385    0.0000 O   0  0  0  0  0  0  0  0  0  0  0  0
    1.2124    7.8385    0.0000 C   0  0  1  0  0  0  0  0  0  0  0  0
    0.0000    8.5385    0.0000 C   0  0  0  0  0  0  0  0  0  0  0  0
    1.2124    6.4385    0.0000 C   0  0  0  0  0  0  0  0  0  0  0  0
    2.4249    5.7385    0.0000 O   0  0  0  0  0  0  0  0  0  0  0  0
    0.0000    5.7385    0.0000 N   0  0  0  0  0  0  0  0  0  0  0  0
  1  2  2  0  0  0  0
  2  3  1  0  0  0  0
  3  4  2  0  0  0  0
  4  5  1  0  0  0  0
  5  6  2  0  0  0  0
  6  1  1  0  0  0  0
  4  7  1  0  0  0  0
  7  8  1  0  0  0  0
  8  9  1  0  0  0  0
  9 10  1  0  0  0  0
 10 11  1  0  0  0  0
 11  5  1  0  0  0  0
  7 12  2  0  0  0  0
 12 13  1  0  0  0  0
 13 14  2  0  0  0  0
 14  8  1  0  0  0  0
 13 15  1  0  0  0  0
 15 16  1  0  0  0  0
 16 17  1  0  0  0  0
 17 18  2  0  0  0  0
 18 19  1  0  0  0  0
 19 15  2  0  0  0  0
 16 20  1  0  0  0  0
 20 21  1  0  0  0  0
 20 22  1  0  0  0  0
  1 23  1  0  0  0  0
 23 24  1  0  0  0  0
 24 25  1  0  0  0  0
 24 26  1  6  0  0  0
 26 27  2  0  0  0  0
 26 28  1  0  0  0  0
M  END
>  <Mol_ID> (649)
3410

>  <Formula> (649)
C19H22N6O3

>  <MolWeight> (649)
382.41638

>  <Cat> (649)
S8157

>  <Name> (649)
GDC-0326

>  <Synonyms> (649)
N/A

>  <Target> (649)
PI3K,PI3K,PI3K,PI3K

>  <Form> (649)
free base

>  <CAS> (649)
1282514-88-8

>  <URL> (649)
http://www.selleckchem.com/products/gdc-0326.html#s_ref

$$$$
Senexin A.cdx
csChFnd80/05071909292D

 21 23  0  0  0  0  0  0  0  0999 V2000
    2.4249    2.1000    0.0000 C   0  0  0  0  0  0  0  0  0  0  0  0
    2.4249    0.7000    0.0000 C   0  0  0  0  0  0  0  0  0  0  0  0
    3.6373    0.0000    0.0000 C   0  0  0  0  0  0  0  0  0  0  0  0
    4.8497    0.7000    0.0000 C   0  0  0  0  0  0  0  0  0  0  0  0
    4.8497    2.1000    0.0000 C   0  0  0  0  0  0  0  0  0  0  0  0
    3.6373    2.8000    0.0000 C   0  0  0  0  0  0  0  0  0  0  0  0
    6.0622    0.0000    0.0000 N   0  0  0  0  0  0  0  0  0  0  0  0
    7.2746    0.7000    0.0000 C   0  0  0  0  0  0  0  0  0  0  0  0
    7.2746    2.1000    0.0000 N   0  0  0  0  0  0  0  0  0  0  0  0
    6.0622    2.8000    0.0000 C   0  0  0  0  0  0  0  0  0  0  0  0
    1.2124    2.8000    0.0000 C   0  0  0  0  0  0  0  0  0  0  0  0
    0.0000    3.5000    0.0000 N   0  0  0  0  0  0  0  0  0  0  0  0
    6.0622    4.2000    0.0000 N   0  0  0  0  0  0  0  0  0  0  0  0
    7.2746    4.9000    0.0000 C   0  0  0  0  0  0  0  0  0  0  0  0
    7.2746    6.3000    0.0000 C   0  0  0  0  0  0  0  0  0  0  0  0
    8.4870    7.0000    0.0000 C   0  0  0  0  0  0  0  0  0  0  0  0
    9.6995    6.3000    0.0000 C   0  0  0  0  0  0  0  0  0  0  0  0
   10.9119    7.0000    0.0000 C   0  0  0  0  0  0  0  0  0  0  0  0
   10.9119    8.4000    0.0000 C   0  0  0  0  0  0  0  0  0  0  0  0
    9.6995    9.1000    0.0000 C   0  0  0  0  0  0  0  0  0  0  0  0
    8.4870    8.4000    0.0000 C   0  0  0  0  0  0  0  0  0  0  0  0
  1  2  2  0  0  0  0
  2  3  1  0  0  0  0
  3  4  2  0  0  0  0
  4  5  1  0  0  0  0
  5  6  2  0  0  0  0
  6  1  1  0  0  0  0
  4  7  1  0  0  0  0
  7  8  2  0  0  0  0
  8  9  1  0  0  0  0
  9 10  2  0  0  0  0
 10  5  1  0  0  0  0
  1 11  1  0  0  0  0
 10 13  1  0  0  0  0
 13 14  1  0  0  0  0
 14 15  1  0  0  0  0
 15 16  1  0  0  0  0
 16 17  2  0  0  0  0
 17 18  1  0  0  0  0
 18 19  2  0  0  0  0
 19 20  1  0  0  0  0
 20 21  2  0  0  0  0
 21 16  1  0  0  0  0
 11 12  3  0  0  0  0
M  END
>  <Mol_ID> (650)
3412

>  <Formula> (650)
C17H14N4

>  <MolWeight> (650)
274.31986

>  <Cat> (650)
S8520

>  <Name> (650)
Senexin A

>  <Synonyms> (650)
N/A

>  <Target> (650)
CDK19,CDK8

>  <Form> (650)
free base

>  <CAS> (650)
1366002-50-7

>  <URL> (650)
http://www.selleckchem.com/products/senexin-a.html

$$$$
MSC2530818.cdx
csChFnd80/05071909292D

 24 27  0  0  0  0  0  0  0  0999 V2000
    2.1544    2.1000    0.0000 C   0  0  0  0  0  0  0  0  0  0  0  0
    2.1544    0.7000    0.0000 C   0  0  0  0  0  0  0  0  0  0  0  0
    3.3668    0.0000    0.0000 N   0  0  0  0  0  0  0  0  0  0  0  0
    4.5792    0.7000    0.0000 C   0  0  0  0  0  0  0  0  0  0  0  0
    4.5792    2.1000    0.0000 C   0  0  0  0  0  0  0  0  0  0  0  0
    3.3668    2.8000    0.0000 C   0  0  0  0  0  0  0  0  0  0  0  0
    0.8229    2.5326    0.0000 C   0  0  0  0  0  0  0  0  0  0  0  0
    0.0000    1.4000    0.0000 N   0  0  0  0  0  0  0  0  0  0  0  0
    0.8229    0.2674    0.0000 N   0  0  0  0  0  0  0  0  0  0  0  0
    0.3903    3.8641    0.0000 C   0  0  0  0  0  0  0  0  0  0  0  0
    5.7917    2.8000    0.0000 C   0  0  0  0  0  0  0  0  0  0  0  0
    5.7917    4.2000    0.0000 O   0  0  0  0  0  0  0  0  0  0  0  0
    7.0041    2.1000    0.0000 N   0  0  0  0  0  0  0  0  0  0  0  0
    7.1505    0.7077    0.0000 C   0  0  0  0  0  0  0  0  0  0  0  0
    8.5199    0.4166    0.0000 C   0  0  0  0  0  0  0  0  0  0  0  0
    9.2199    1.6290    0.0000 C   0  0  0  0  0  0  0  0  0  0  0  0
    8.2831    2.6694    0.0000 C   0  0  1  0  0  0  0  0  0  0  0  0
    8.5742    4.0388    0.0000 C   0  0  0  0  0  0  0  0  0  0  0  0
    9.9056    4.4715    0.0000 C   0  0  0  0  0  0  0  0  0  0  0  0
   10.1967    5.8409    0.0000 C   0  0  0  0  0  0  0  0  0  0  0  0
    9.1563    6.7777    0.0000 C   0  0  0  0  0  0  0  0  0  0  0  0
    7.8248    6.3450    0.0000 C   0  0  0  0  0  0  0  0  0  0  0  0
    7.5338    4.9756    0.0000 C   0  0  0  0  0  0  0  0  0  0  0  0
    9.4474    8.1471    0.0000 Cl  0  0  0  0  0  0  0  0  0  0  0  0
  1  2  2  0  0  0  0
  2  3  1  0  0  0  0
  3  4  2  0  0  0  0
  4  5  1  0  0  0  0
  5  6  2  0  0  0  0
  6  1  1  0  0  0  0
  1  7  1  0  0  0  0
  7  8  2  0  0  0  0
  8  9  1  0  0  0  0
  9  2  1  0  0  0  0
  7 10  1  0  0  0  0
  5 11  1  0  0  0  0
 11 12  2  0  0  0  0
 11 13  1  0  0  0  0
 13 14  1  0  0  0  0
 14 15  1  0  0  0  0
 15 16  1  0  0  0  0
 16 17  1  0  0  0  0
 17 13  1  0  0  0  0
 17 18  1  6  0  0  0
 18 19  2  0  0  0  0
 19 20  1  0  0  0  0
 20 21  2  0  0  0  0
 21 22  1  0  0  0  0
 22 23  2  0  0  0  0
 23 18  1  0  0  0  0
 21 24  1  0  0  0  0
M  END
>  <Mol_ID> (651)
3415

>  <Formula> (651)
C18H17ClN4O

>  <MolWeight> (651)
340.80678

>  <Cat> (651)
S8387

>  <Name> (651)
MSC2530818

>  <Synonyms> (651)
N/A

>  <Target> (651)
CDK8

>  <Form> (651)
free base

>  <CAS> (651)
1883423-59-3

>  <URL> (651)
http://www.selleckchem.com/products/msc2530818.html

$$$$
Sitravatinib (MGCD516 ).cdx
csChFnd80/05071909292D

 45 50  0  0  0  0  0  0  0  0999 V2000
    6.9965    2.4228    0.0000 C   0  0  0  0  0  0  0  0  0  0  0  0
    8.3965    2.4228    0.0000 N   0  0  0  0  0  0  0  0  0  0  0  0
    9.0965    3.6353    0.0000 C   0  0  0  0  0  0  0  0  0  0  0  0
    8.3965    4.8477    0.0000 C   0  0  0  0  0  0  0  0  0  0  0  0
    6.9965    4.8477    0.0000 C   0  0  0  0  0  0  0  0  0  0  0  0
    6.2965    3.6353    0.0000 C   0  0  0  0  0  0  0  0  0  0  0  0
    4.8965    3.6353    0.0000 C   0  0  0  0  0  0  0  0  0  0  0  0
    4.1965    2.4228    0.0000 N   0  0  0  0  0  0  0  0  0  0  0  0
    2.7965    2.4228    0.0000 C   0  0  0  0  0  0  0  0  0  0  0  0
    2.0965    1.2104    0.0000 C   0  0  0  0  0  0  0  0  0  0  0  0
   10.4965    3.6353    0.0000 C   0  0  0  0  0  0  0  0  0  0  0  0
   11.3194    2.5027    0.0000 C   0  0  0  0  0  0  0  0  0  0  0  0
   12.6509    2.9353    0.0000 C   0  0  0  0  0  0  0  0  0  0  0  0
   12.6509    4.3353    0.0000 C   0  0  0  0  0  0  0  0  0  0  0  0
   11.3194    4.7679    0.0000 S   0  0  0  0  0  0  0  0  0  0  0  0
   13.8633    2.2353    0.0000 N   0  0  0  0  0  0  0  0  0  0  0  0
   15.0757    2.9353    0.0000 C   0  0  0  0  0  0  0  0  0  0  0  0
   15.0757    4.3353    0.0000 C   0  0  0  0  0  0  0  0  0  0  0  0
   13.8633    5.0353    0.0000 C   0  0  0  0  0  0  0  0  0  0  0  0
   13.8633    6.4353    0.0000 O   0  0  0  0  0  0  0  0  0  0  0  0
   15.0757    7.1353    0.0000 C   0  0  0  0  0  0  0  0  0  0  0  0
   16.2882    6.4353    0.0000 C   0  0  0  0  0  0  0  0  0  0  0  0
   17.5006    7.1353    0.0000 C   0  0  0  0  0  0  0  0  0  0  0  0
   17.5006    8.5353    0.0000 C   0  0  0  0  0  0  0  0  0  0  0  0
   16.2882    9.2353    0.0000 C   0  0  0  0  0  0  0  0  0  0  0  0
   15.0757    8.5353    0.0000 C   0  0  0  0  0  0  0  0  0  0  0  0
   13.8633    9.2353    0.0000 F   0  0  0  0  0  0  0  0  0  0  0  0
   18.7131    9.2353    0.0000 N   0  0  0  0  0  0  0  0  0  0  0  0
   19.9255    8.5353    0.0000 C   0  0  0  0  0  0  0  0  0  0  0  0
   21.1379    9.2353    0.0000 C   0  0  0  0  0  0  0  0  0  0  0  0
   19.9255    7.1353    0.0000 O   0  0  0  0  0  0  0  0  0  0  0  0
   22.3504    8.5353    0.0000 C   0  0  0  0  0  0  0  0  0  0  0  0
   23.5628    9.2353    0.0000 N   0  0  0  0  0  0  0  0  0  0  0  0
   22.3504    7.1353    0.0000 O   0  0  0  0  0  0  0  0  0  0  0  0
   24.7752    8.5353    0.0000 C   0  0  0  0  0  0  0  0  0  0  0  0
   21.8379   10.4477    0.0000 C   0  0  0  0  0  0  0  0  0  0  0  0
   20.4379   10.4477    0.0000 C   0  0  0  0  0  0  0  0  0  0  0  0
   24.7752    7.1353    0.0000 C   0  0  0  0  0  0  0  0  0  0  0  0
   25.9877    6.4353    0.0000 C   0  0  0  0  0  0  0  0  0  0  0  0
   27.2001    7.1353    0.0000 C   0  0  0  0  0  0  0  0  0  0  0  0
   27.2001    8.5353    0.0000 C   0  0  0  0  0  0  0  0  0  0  0  0
   25.9877    9.2353    0.0000 C   0  0  0  0  0  0  0  0  0  0  0  0
   28.4105    6.4365    0.0000 F   0  0  0  0  0  0  0  0  0  0  0  0
    0.6988    1.2104    0.0000 O   0  0  0  0  0  0  0  0  0  0  0  0
    0.0000    0.0000    0.0000 C   0  0  0  0  0  0  0  0  0  0  0  0
  1  2  2  0  0  0  0
  2  3  1  0  0  0  0
  3  4  2  0  0  0  0
  4  5  1  0  0  0  0
  5  6  2  0  0  0  0
  6  1  1  0  0  0  0
  6  7  1  0  0  0  0
  7  8  1  0  0  0  0
  8  9  1  0  0  0  0
  9 10  1  0  0  0  0
  3 11  1  0  0  0  0
 11 12  2  0  0  0  0
 12 13  1  0  0  0  0
 13 14  2  0  0  0  0
 14 15  1  0  0  0  0
 15 11  1  0  0  0  0
 13 16  1  0  0  0  0
 16 17  2  0  0  0  0
 17 18  1  0  0  0  0
 18 19  2  0  0  0  0
 19 14  1  0  0  0  0
 19 20  1  0  0  0  0
 20 21  1  0  0  0  0
 21 22  2  0  0  0  0
 22 23  1  0  0  0  0
 23 24  2  0  0  0  0
 24 25  1  0  0  0  0
 25 26  2  0  0  0  0
 26 21  1  0  0  0  0
 26 27  1  0  0  0  0
 24 28  1  0  0  0  0
 28 29  1  0  0  0  0
 29 30  1  0  0  0  0
 29 31  2  0  0  0  0
 30 32  1  0  0  0  0
 32 33  1  0  0  0  0
 32 34  2  0  0  0  0
 33 35  1  0  0  0  0
 30 36  1  0  0  0  0
 36 37  1  0  0  0  0
 37 30  1  0  0  0  0
 35 38  2  0  0  0  0
 38 39  1  0  0  0  0
 39 40  2  0  0  0  0
 40 41  1  0  0  0  0
 41 42  2  0  0  0  0
 42 35  1  0  0  0  0
 40 43  1  0  0  0  0
 10 44  1  0  0  0  0
 44 45  1  0  0  0  0
M  END
>  <Mol_ID> (652)
3416

>  <Formula> (652)
C33H29F2N5O4S

>  <MolWeight> (652)
629.6762664

>  <Cat> (652)
S8573

>  <Name> (652)
Sitravatinib (MGCD516)

>  <Synonyms> (652)
MG-516

>  <Target> (652)
DDR2,EPHA3,Axl,Mer,FLT4,KDR,NTRK1,FLT1,etc

>  <Form> (652)
free base

>  <CAS> (652)
1123837-84-2

>  <URL> (652)
http://www.selleckchem.com/products/sitravatinib-mgcd516.html

$$$$
TPX-0005.cdx
csChFnd80/05071909292D

 26 29  0  0  0  0  0  0  0  0999 V2000
    1.2097    7.4730    0.0000 C   0  0  0  0  0  0  0  0  0  0  0  0
    1.2097    6.0745    0.0000 C   0  0  0  0  0  0  0  0  0  0  0  0
    2.4156    5.3782    0.0000 C   0  0  0  0  0  0  0  0  0  0  0  0
    3.6232    6.0754    0.0000 C   0  0  0  0  0  0  0  0  0  0  0  0
    3.6232    7.4651    0.0000 C   0  0  0  0  0  0  0  0  0  0  0  0
    2.4224    8.1584    0.0000 C   0  0  0  0  0  0  0  0  0  0  0  0
    0.0000    8.1714    0.0000 F   0  0  0  0  0  0  0  0  0  0  0  0
    1.9115    4.0505    0.0000 C   0  0  2  0  0  0  0  0  0  0  0  0
    2.3987    2.7217    0.0000 N   0  0  0  0  0  0  0  0  0  0  0  0
    3.6977    2.1225    0.0000 C   0  0  0  0  0  0  0  0  0  0  0  0
    3.6590    0.7116    0.0000 C   0  0  0  0  0  0  0  0  0  0  0  0
    4.8917    0.0000    0.0000 C   0  0  0  0  0  0  0  0  0  0  0  0
    6.0907    0.6923    0.0000 N   0  0  0  0  0  0  0  0  0  0  0  0
    6.0907    2.0656    0.0000 C   0  0  0  0  0  0  0  0  0  0  0  0
    4.8449    2.7848    0.0000 N   0  0  0  0  0  0  0  0  0  0  0  0
    7.4573    0.2503    0.0000 N   0  0  0  0  0  0  0  0  0  0  0  0
    8.3156    1.3672    0.0000 C   0  0  0  0  0  0  0  0  0  0  0  0
    7.5283    2.5283    0.0000 C   0  0  0  0  0  0  0  0  0  0  0  0
    8.4068    3.6924    0.0000 C   0  0  0  0  0  0  0  0  0  0  0  0
    9.7174    3.2388    0.0000 O   0  0  0  0  0  0  0  0  0  0  0  0
    0.5105    4.0505    0.0000 C   0  0  0  0  0  0  0  0  0  0  0  0
    4.9996    5.8195    0.0000 O   0  0  0  0  0  0  0  0  0  0  0  0
    6.2107    6.5188    0.0000 C   0  0  2  0  0  0  0  0  0  0  0  0
    7.5759    6.2362    0.0000 C   0  0  0  0  0  0  0  0  0  0  0  0
    8.4068    5.1128    0.0000 N   0  0  0  0  0  0  0  0  0  0  0  0
    5.9757    7.9102    0.0000 C   0  0  0  0  0  0  0  0  0  0  0  0
  1  2  2  0  0  0  0
  2  3  1  0  0  0  0
  3  4  2  0  0  0  0
  4  5  1  0  0  0  0
  5  6  2  0  0  0  0
  6  1  1  0  0  0  0
  1  7  1  0  0  0  0
  3  8  1  0  0  0  0
  8  9  1  0  0  0  0
  9 10  1  0  0  0  0
 11 12  2  0  0  0  0
 13 14  1  0  0  0  0
 15 10  2  0  0  0  0
 13 16  1  0  0  0  0
 16 17  2  0  0  0  0
 17 18  1  0  0  0  0
 18 14  2  0  0  0  0
 15 14  1  0  0  0  0
 13 12  1  0  0  0  0
 11 10  1  0  0  0  0
 18 19  1  0  0  0  0
 19 20  2  0  0  0  0
  8 21  1  6  0  0  0
  4 22  1  0  0  0  0
 22 23  1  0  0  0  0
 23 24  1  0  0  0  0
 24 25  1  0  0  0  0
 25 19  1  0  0  0  0
 23 26  1  1  0  0  0
M  END
>  <Mol_ID> (653)
3420

>  <Formula> (653)
C18H18FN5O2

>  <MolWeight> (653)
355.3662232

>  <Cat> (653)
S8583

>  <Name> (653)
TPX-0005

>  <Synonyms> (653)
N/A

>  <Target> (653)
 ALK,ALK(L1196M),ALK(G1202R),Src 

>  <Form> (653)
free base

>  <CAS> (653)
no

>  <URL> (653)
http://www.selleckchem.com/products/tpx-0005.html

$$$$
GSK2982772.cdx
csChFnd80/05071909292D

 28 31  0  0  0  0  0  0  0  0999 V2000
    0.0000    3.6378    0.0000 C   0  0  0  0  0  0  0  0  0  0  0  0
    0.0000    2.2378    0.0000 C   0  0  0  0  0  0  0  0  0  0  0  0
    1.2124    1.5378    0.0000 C   0  0  0  0  0  0  0  0  0  0  0  0
    2.4249    2.2378    0.0000 C   0  0  0  0  0  0  0  0  0  0  0  0
    2.4249    3.6378    0.0000 C   0  0  0  0  0  0  0  0  0  0  0  0
    1.2124    4.3378    0.0000 C   0  0  0  0  0  0  0  0  0  0  0  0
    3.5194    1.3649    0.0000 N   0  0  0  0  0  0  0  0  0  0  0  0
    4.8843    1.6764    0.0000 C   0  0  0  0  0  0  0  0  0  0  0  0
    5.4918    2.9378    0.0000 C   0  0  2  0  0  0  0  0  0  0  0  0
    4.8843    4.1991    0.0000 C   0  0  0  0  0  0  0  0  0  0  0  0
    3.5194    4.5107    0.0000 O   0  0  0  0  0  0  0  0  0  0  0  0
    3.2079    0.0000    0.0000 C   0  0  0  0  0  0  0  0  0  0  0  0
    5.7572    0.5819    0.0000 O   0  0  0  0  0  0  0  0  0  0  0  0
    6.8918    2.9378    0.0000 N   0  0  0  0  0  0  0  0  0  0  0  0
    7.5918    4.1502    0.0000 C   0  0  0  0  0  0  0  0  0  0  0  0
    8.9918    4.1502    0.0000 C   0  0  0  0  0  0  0  0  0  0  0  0
    6.8918    5.3627    0.0000 O   0  0  0  0  0  0  0  0  0  0  0  0
    9.8147    3.0176    0.0000 N   0  0  0  0  0  0  0  0  0  0  0  0
   11.1462    3.4502    0.0000 N   0  0  0  0  0  0  0  0  0  0  0  0
   11.1462    4.8502    0.0000 C   0  0  0  0  0  0  0  0  0  0  0  0
    9.8147    5.2828    0.0000 N   0  0  0  0  0  0  0  0  0  0  0  0
   12.2788    5.6731    0.0000 C   0  0  0  0  0  0  0  0  0  0  0  0
   13.5577    5.1037    0.0000 C   0  0  0  0  0  0  0  0  0  0  0  0
   13.7041    3.7114    0.0000 C   0  0  0  0  0  0  0  0  0  0  0  0
   14.9830    3.1419    0.0000 C   0  0  0  0  0  0  0  0  0  0  0  0
   16.1157    3.9648    0.0000 C   0  0  0  0  0  0  0  0  0  0  0  0
   15.9693    5.3572    0.0000 C   0  0  0  0  0  0  0  0  0  0  0  0
   14.6904    5.9266    0.0000 C   0  0  0  0  0  0  0  0  0  0  0  0
  1  2  2  0  0  0  0
  2  3  1  0  0  0  0
  3  4  2  0  0  0  0
  4  5  1  0  0  0  0
  5  6  2  0  0  0  0
  6  1  1  0  0  0  0
  4  7  1  0  0  0  0
  7  8  1  0  0  0  0
  8  9  1  0  0  0  0
  9 10  1  0  0  0  0
 10 11  1  0  0  0  0
 11  5  1  0  0  0  0
  7 12  1  0  0  0  0
  8 13  2  0  0  0  0
  9 14  1  6  0  0  0
 14 15  1  0  0  0  0
 15 16  1  0  0  0  0
 15 17  2  0  0  0  0
 16 18  2  0  0  0  0
 18 19  1  0  0  0  0
 19 20  1  0  0  0  0
 20 21  2  0  0  0  0
 21 16  1  0  0  0  0
 20 22  1  0  0  0  0
 22 23  1  0  0  0  0
 23 24  2  0  0  0  0
 24 25  1  0  0  0  0
 25 26  2  0  0  0  0
 26 27  1  0  0  0  0
 27 28  2  0  0  0  0
 28 23  1  0  0  0  0
M  END
>  <Mol_ID> (654)
3421

>  <Formula> (654)
C20H19N5O3

>  <MolWeight> (654)
377.39656

>  <Cat> (654)
S8484

>  <Name> (654)
GSK2982772

>  <Synonyms> (654)
N/A

>  <Target> (654)
human RIP1

>  <Form> (654)
free base

>  <CAS> (654)
1622848-92-3

>  <URL> (654)
http://www.selleckchem.com/products/gsk2982772.html

$$$$
Amcasertib (BBI503).cdx
csChFnd80/05071909292D

 39 43  0  0  0  0  0  0  0  0999 V2000
    3.4282    5.3065    0.0000 C   0  0  0  0  0  0  0  0  0  0  0  0
    4.8282    5.3065    0.0000 C   0  0  0  0  0  0  0  0  0  0  0  0
    5.5282    6.5190    0.0000 C   0  0  0  0  0  0  0  0  0  0  0  0
    4.8282    7.7314    0.0000 C   0  0  0  0  0  0  0  0  0  0  0  0
    3.4282    7.7314    0.0000 C   0  0  0  0  0  0  0  0  0  0  0  0
    2.7282    6.5190    0.0000 C   0  0  0  0  0  0  0  0  0  0  0  0
    1.3588    6.2279    0.0000 N   0  0  0  0  0  0  0  0  0  0  0  0
    1.2124    4.8356    0.0000 C   0  0  0  0  0  0  0  0  0  0  0  0
    2.4914    4.2661    0.0000 C   0  0  0  0  0  0  0  0  0  0  0  0
    0.0000    4.1356    0.0000 O   0  0  0  0  0  0  0  0  0  0  0  0
    6.9282    6.5190    0.0000 C   0  0  0  0  0  0  0  0  0  0  0  0
    7.7511    5.3863    0.0000 C   0  0  0  0  0  0  0  0  0  0  0  0
    9.0826    5.8190    0.0000 S   0  0  0  0  0  0  0  0  0  0  0  0
    9.0826    7.2190    0.0000 C   0  0  0  0  0  0  0  0  0  0  0  0
    7.7511    7.6516    0.0000 N   0  0  0  0  0  0  0  0  0  0  0  0
   10.2152    8.0419    0.0000 C   0  0  0  0  0  0  0  0  0  0  0  0
   11.4941    7.4724    0.0000 C   0  0  0  0  0  0  0  0  0  0  0  0
   12.6268    8.2953    0.0000 C   0  0  0  0  0  0  0  0  0  0  0  0
   12.4804    9.6877    0.0000 C   0  0  0  0  0  0  0  0  0  0  0  0
   11.2015   10.2571    0.0000 C   0  0  0  0  0  0  0  0  0  0  0  0
   10.0688    9.4342    0.0000 C   0  0  0  0  0  0  0  0  0  0  0  0
    2.7825    2.8967    0.0000 C   0  0  0  0  0  0  0  0  0  0  0  0
    4.1140    2.4641    0.0000 C   0  0  0  0  0  0  0  0  0  0  0  0
    4.5466    1.1326    0.0000 N   0  0  0  0  0  0  0  0  0  0  0  0
    5.9466    1.1326    0.0000 C   0  0  0  0  0  0  0  0  0  0  0  0
    6.3792    2.4641    0.0000 C   0  0  0  0  0  0  0  0  0  0  0  0
    5.2466    3.2870    0.0000 C   0  0  0  0  0  0  0  0  0  0  0  0
    5.2466    4.6870    0.0000 C   0  0  0  0  0  0  0  0  0  0  0  0
    6.7695    0.0000    0.0000 C   0  0  0  0  0  0  0  0  0  0  0  0
    7.7107    2.8967    0.0000 C   0  0  0  0  0  0  0  0  0  0  0  0
    8.7511    1.9599    0.0000 N   0  0  0  0  0  0  0  0  0  0  0  0
    8.0018    4.2661    0.0000 O   0  0  0  0  0  0  0  0  0  0  0  0
   10.0826    2.3926    0.0000 C   0  0  0  0  0  0  0  0  0  0  0  0
   11.1230    1.4558    0.0000 C   0  0  0  0  0  0  0  0  0  0  0  0
   12.4544    1.8884    0.0000 N   0  0  0  0  0  0  0  0  0  0  0  0
   13.4948    0.9516    0.0000 C   0  0  0  0  0  0  0  0  0  0  0  0
   12.7455    3.2578    0.0000 C   0  0  0  0  0  0  0  0  0  0  0  0
   14.0770    3.6904    0.0000 C   0  0  0  0  0  0  0  0  0  0  0  0
   14.8263    1.3842    0.0000 C   0  0  0  0  0  0  0  0  0  0  0  0
  1  2  2  0  0  0  0
  2  3  1  0  0  0  0
  3  4  2  0  0  0  0
  4  5  1  0  0  0  0
  5  6  2  0  0  0  0
  6  1  1  0  0  0  0
  6  7  1  0  0  0  0
  7  8  1  0  0  0  0
  8  9  1  0  0  0  0
  9  1  1  0  0  0  0
  8 10  2  0  0  0  0
  3 11  1  0  0  0  0
 11 12  2  0  0  0  0
 12 13  1  0  0  0  0
 13 14  1  0  0  0  0
 14 15  2  0  0  0  0
 15 11  1  0  0  0  0
 14 16  1  0  0  0  0
 16 17  2  0  0  0  0
 17 18  1  0  0  0  0
 18 19  2  0  0  0  0
 19 20  1  0  0  0  0
 20 21  2  0  0  0  0
 21 16  1  0  0  0  0
  9 22  2  0  0  0  0
 22 23  1  0  0  0  0
 23 24  1  0  0  0  0
 24 25  1  0  0  0  0
 25 26  2  0  0  0  0
 26 27  1  0  0  0  0
 27 23  2  0  0  0  0
 27 28  1  0  0  0  0
 25 29  1  0  0  0  0
 26 30  1  0  0  0  0
 30 31  1  0  0  0  0
 30 32  2  0  0  0  0
 31 33  1  0  0  0  0
 33 34  1  0  0  0  0
 34 35  1  0  0  0  0
 35 36  1  0  0  0  0
 35 37  1  0  0  0  0
 37 38  1  0  0  0  0
 36 39  1  0  0  0  0
M  END
>  <Mol_ID> (655)
3422

>  <Formula> (655)
C31H33N5O2S

>  <MolWeight> (655)
539.69102

>  <Cat> (655)
S8572

>  <Name> (655)
Amcasertib (BBI503)

>  <Synonyms> (655)
N/A

>  <Target> (655)
Nanog

>  <Form> (655)
free base

>  <CAS> (655)
1129403-56-0

>  <URL> (655)
http://www.selleckchem.com/products/amcasertib-bbi503.html

$$$$
SF2523.cdx
csChFnd80/05071909292D

 26 30  0  0  0  0  0  0  0  0999 V2000
    3.5661    8.1989    0.0000 C   0  0  0  0  0  0  0  0  0  0  0  0
    3.5661    6.7989    0.0000 C   0  0  0  0  0  0  0  0  0  0  0  0
    4.7786    6.0989    0.0000 O   0  0  0  0  0  0  0  0  0  0  0  0
    5.9910    6.7989    0.0000 C   0  0  0  0  0  0  0  0  0  0  0  0
    5.9910    8.1989    0.0000 C   0  0  0  0  0  0  0  0  0  0  0  0
    4.7786    8.8989    0.0000 C   0  0  0  0  0  0  0  0  0  0  0  0
    2.2347    8.6316    0.0000 S   0  0  0  0  0  0  0  0  0  0  0  0
    1.4118    7.4989    0.0000 C   0  0  0  0  0  0  0  0  0  0  0  0
    2.2347    6.3663    0.0000 C   0  0  0  0  0  0  0  0  0  0  0  0
    4.7786   10.2989    0.0000 O   0  0  0  0  0  0  0  0  0  0  0  0
    7.2034    6.0989    0.0000 N   0  0  0  0  0  0  0  0  0  0  0  0
    7.2034    4.6989    0.0000 C   0  0  0  0  0  0  0  0  0  0  0  0
    8.4159    3.9989    0.0000 C   0  0  0  0  0  0  0  0  0  0  0  0
    9.6283    4.6989    0.0000 O   0  0  0  0  0  0  0  0  0  0  0  0
    9.6283    6.0989    0.0000 C   0  0  0  0  0  0  0  0  0  0  0  0
    8.4159    6.7989    0.0000 C   0  0  0  0  0  0  0  0  0  0  0  0
    1.8020    5.0348    0.0000 C   0  0  0  0  0  0  0  0  0  0  0  0
    0.4326    4.7438    0.0000 C   0  0  0  0  0  0  0  0  0  0  0  0
    0.0000    3.4123    0.0000 C   0  0  0  0  0  0  0  0  0  0  0  0
    0.9368    2.3719    0.0000 C   0  0  0  0  0  0  0  0  0  0  0  0
    2.3062    2.6630    0.0000 C   0  0  0  0  0  0  0  0  0  0  0  0
    2.7388    3.9944    0.0000 C   0  0  0  0  0  0  0  0  0  0  0  0
    0.5042    1.0404    0.0000 O   0  0  0  0  0  0  0  0  0  0  0  0
    1.4409    0.0000    0.0000 C   0  0  0  0  0  0  0  0  0  0  0  0
    2.8103    0.2911    0.0000 C   0  0  0  0  0  0  0  0  0  0  0  0
    3.2430    1.6226    0.0000 O   0  0  0  0  0  0  0  0  0  0  0  0
  1  2  2  0  0  0  0
  2  3  1  0  0  0  0
  3  4  1  0  0  0  0
  4  5  2  0  0  0  0
  5  6  1  0  0  0  0
  6  1  1  0  0  0  0
  1  7  1  0  0  0  0
  7  8  1  0  0  0  0
  8  9  2  0  0  0  0
  9  2  1  0  0  0  0
  6 10  2  0  0  0  0
  4 11  1  0  0  0  0
 11 12  1  0  0  0  0
 12 13  1  0  0  0  0
 13 14  1  0  0  0  0
 14 15  1  0  0  0  0
 15 16  1  0  0  0  0
 16 11  1  0  0  0  0
  9 17  1  0  0  0  0
 17 18  2  0  0  0  0
 18 19  1  0  0  0  0
 19 20  2  0  0  0  0
 20 21  1  0  0  0  0
 21 22  2  0  0  0  0
 22 17  1  0  0  0  0
 20 23  1  0  0  0  0
 23 24  1  0  0  0  0
 24 25  1  0  0  0  0
 25 26  1  0  0  0  0
 26 21  1  0  0  0  0
M  END
>  <Mol_ID> (656)
3423

>  <Formula> (656)
C19H17NO5S

>  <MolWeight> (656)
371.40698

>  <Cat> (656)
S8589

>  <Name> (656)
SF2523

>  <Synonyms> (656)
N/A

>  <Target> (656)
DNA-PK,PI3K,PI3K ,BRD4,mTOR

>  <Form> (656)
free base

>  <CAS> (656)
1174428-47-7

>  <URL> (656)
http://www.selleckchem.com/products/sf2523.html

$$$$
IPI-549.cdx
csChFnd80/05071909292D

 40 45  0  0  0  0  0  0  0  0999 V2000
    0.3105    8.7948    0.0000 C   0  0  0  0  0  0  0  0  0  0  0  0
    0.3105    7.3948    0.0000 C   0  0  0  0  0  0  0  0  0  0  0  0
    1.5229    6.6948    0.0000 C   0  0  0  0  0  0  0  0  0  0  0  0
    2.7353    7.3948    0.0000 C   0  0  0  0  0  0  0  0  0  0  0  0
    2.7353    8.7948    0.0000 C   0  0  0  0  0  0  0  0  0  0  0  0
    1.5229    9.4948    0.0000 C   0  0  0  0  0  0  0  0  0  0  0  0
    3.9478    6.6948    0.0000 C   0  0  0  0  0  0  0  0  0  0  0  0
    5.1602    7.3948    0.0000 C   0  0  0  0  0  0  0  0  0  0  0  0
    5.1602    8.7948    0.0000 N   0  0  0  0  0  0  0  0  0  0  0  0
    3.9478    9.4948    0.0000 C   0  0  0  0  0  0  0  0  0  0  0  0
    1.5229   10.8948    0.0000 C   0  0  0  0  0  0  0  0  0  0  0  0
    1.5229   12.2948    0.0000 C   0  0  0  0  0  0  0  0  0  0  0  0
    1.5229   13.6948    0.0000 C   0  0  0  0  0  0  0  0  0  0  0  0
    2.6555   14.5177    0.0000 C   0  0  0  0  0  0  0  0  0  0  0  0
    2.2229   15.8492    0.0000 N   0  0  0  0  0  0  0  0  0  0  0  0
    0.8229   15.8492    0.0000 N   0  0  0  0  0  0  0  0  0  0  0  0
    0.3903   14.5177    0.0000 C   0  0  0  0  0  0  0  0  0  0  0  0
    0.0000   16.9818    0.0000 C   0  0  0  0  0  0  0  0  0  0  0  0
    3.9478   10.8948    0.0000 O   0  0  0  0  0  0  0  0  0  0  0  0
    6.3726    9.4948    0.0000 C   0  0  0  0  0  0  0  0  0  0  0  0
    6.3726    6.6948    0.0000 C   0  0  2  0  0  0  0  0  0  0  0  0
    7.5851    7.3948    0.0000 C   0  0  0  0  0  0  0  0  0  0  0  0
    6.3726    5.2948    0.0000 N   0  0  0  0  0  0  0  0  0  0  0  0
    7.5851    4.5948    0.0000 C   0  0  0  0  0  0  0  0  0  0  0  0
    7.5851    3.1948    0.0000 C   0  0  0  0  0  0  0  0  0  0  0  0
    8.7975    5.2948    0.0000 O   0  0  0  0  0  0  0  0  0  0  0  0
    6.4525    2.3719    0.0000 C   0  0  0  0  0  0  0  0  0  0  0  0
    6.8851    1.0404    0.0000 N   0  0  0  0  0  0  0  0  0  0  0  0
    8.2851    1.0404    0.0000 N   0  0  0  0  0  0  0  0  0  0  0  0
    8.7177    2.3719    0.0000 C   0  0  0  0  0  0  0  0  0  0  0  0
    5.0830    2.6630    0.0000 N   0  0  0  0  0  0  0  0  0  0  0  0
    4.1463    1.6226    0.0000 C   0  0  0  0  0  0  0  0  0  0  0  0
    4.5789    0.2911    0.0000 C   0  0  0  0  0  0  0  0  0  0  0  0
    5.9483    0.0000    0.0000 C   0  0  0  0  0  0  0  0  0  0  0  0
   10.0492    2.8045    0.0000 N   0  0  0  0  0  0  0  0  0  0  0  0
    7.5851    8.7948    0.0000 C   0  0  0  0  0  0  0  0  0  0  0  0
    8.7975    9.4948    0.0000 C   0  0  0  0  0  0  0  0  0  0  0  0
    8.7975   10.8948    0.0000 C   0  0  0  0  0  0  0  0  0  0  0  0
    7.5851   11.5948    0.0000 C   0  0  0  0  0  0  0  0  0  0  0  0
    6.3726   10.8948    0.0000 C   0  0  0  0  0  0  0  0  0  0  0  0
  1  2  2  0  0  0  0
  2  3  1  0  0  0  0
  3  4  2  0  0  0  0
  4  5  1  0  0  0  0
  5  6  2  0  0  0  0
  6  1  1  0  0  0  0
  4  7  1  0  0  0  0
  7  8  2  0  0  0  0
  8  9  1  0  0  0  0
  9 10  1  0  0  0  0
 10  5  1  0  0  0  0
  6 11  1  0  0  0  0
 11 12  3  0  0  0  0
 12 13  1  0  0  0  0
 13 14  1  0  0  0  0
 14 15  2  0  0  0  0
 15 16  1  0  0  0  0
 16 17  1  0  0  0  0
 17 13  2  0  0  0  0
 16 18  1  0  0  0  0
 10 19  2  0  0  0  0
  9 20  1  0  0  0  0
  8 21  1  0  0  0  0
 21 22  1  0  0  0  0
 21 23  1  6  0  0  0
 23 24  1  0  0  0  0
 24 25  1  0  0  0  0
 24 26  2  0  0  0  0
 25 27  2  0  0  0  0
 27 28  1  0  0  0  0
 28 29  1  0  0  0  0
 29 30  2  0  0  0  0
 30 25  1  0  0  0  0
 27 31  1  0  0  0  0
 31 32  2  0  0  0  0
 32 33  1  0  0  0  0
 33 34  2  0  0  0  0
 34 28  1  0  0  0  0
 30 35  1  0  0  0  0
 20 36  2  0  0  0  0
 36 37  1  0  0  0  0
 37 38  2  0  0  0  0
 38 39  1  0  0  0  0
 39 40  2  0  0  0  0
 40 20  1  0  0  0  0
M  END
>  <Mol_ID> (657)
3424

>  <Formula> (657)
C30H24N8O2

>  <MolWeight> (657)
528.56396

>  <Cat> (657)
S8330

>  <Name> (657)
IPI-549

>  <Synonyms> (657)
N/A

>  <Target> (657)
PI3K

>  <CAS> (657)
1693758-51-8

>  <URL> (657)
http://www.selleckchem.com/products/ipi-549.html

$$$$
TAK-659.cdx
csChFnd80/05071909292D

 26 28  0  0  0  0  0  0  0  0999 V2000
    3.2755    0.0000    0.0000 Cl  0  0  0  0  0  0  0  0  0  0  0  0
    3.4282    7.2513    0.0000 C   0  0  0  0  0  0  0  0  0  0  0  0
    3.4282    5.8513    0.0000 C   0  0  0  0  0  0  0  0  0  0  0  0
    4.6406    5.1513    0.0000 N   0  0  0  0  0  0  0  0  0  0  0  0
    5.8531    5.8513    0.0000 C   0  0  0  0  0  0  0  0  0  0  0  0
    5.8531    7.2513    0.0000 C   0  0  0  0  0  0  0  0  0  0  0  0
    4.6406    7.9513    0.0000 C   0  0  0  0  0  0  0  0  0  0  0  0
    4.3495    9.3208    0.0000 C   0  0  0  0  0  0  0  0  0  0  0  0
    2.9572    9.4671    0.0000 N   0  0  0  0  0  0  0  0  0  0  0  0
    2.3878    8.1881    0.0000 C   0  0  0  0  0  0  0  0  0  0  0  0
    2.2157    5.1513    0.0000 C   0  0  0  0  0  0  0  0  0  0  0  0
    7.0655    5.1513    0.0000 N   0  0  0  0  0  0  0  0  0  0  0  0
    7.0655    3.7513    0.0000 C   0  0  2  0  0  0  0  0  0  0  0  0
    5.8531    3.0513    0.0000 C   0  0  0  0  0  0  0  0  0  0  0  0
    5.8531    1.6513    0.0000 C   0  0  0  0  0  0  0  0  0  0  0  0
    7.0655    0.9513    0.0000 C   0  0  0  0  0  0  0  0  0  0  0  0
    8.2779    1.6513    0.0000 C   0  0  0  0  0  0  0  0  0  0  0  0
    8.2779    3.0513    0.0000 C   0  0  2  0  0  0  0  0  0  0  0  0
    0.9368    5.7208    0.0000 C   0  0  0  0  0  0  0  0  0  0  0  0
    0.0000    4.6804    0.0000 N   0  0  0  0  0  0  0  0  0  0  0  0
    0.7000    3.4679    0.0000 N   0  0  0  0  0  0  0  0  0  0  0  0
    2.0694    3.7590    0.0000 C   0  0  0  0  0  0  0  0  0  0  0  0
    0.1306    2.1890    0.0000 C   0  0  0  0  0  0  0  0  0  0  0  0
    1.0184    7.8971    0.0000 O   0  0  0  0  0  0  0  0  0  0  0  0
    7.0655    7.9513    0.0000 F   0  0  0  0  0  0  0  0  0  0  0  0
    9.4904    3.7513    0.0000 N   0  0  0  0  0  0  0  0  0  0  0  0
  2  3  2  0  0  0  0
  3  4  1  0  0  0  0
  4  5  2  0  0  0  0
  5  6  1  0  0  0  0
  6  7  2  0  0  0  0
  7  2  1  0  0  0  0
  7  8  1  0  0  0  0
  8  9  1  0  0  0  0
  9 10  1  0  0  0  0
 10  2  1  0  0  0  0
  3 11  1  0  0  0  0
  5 12  1  0  0  0  0
 13 12  1  1  0  0  0
 13 14  1  0  0  0  0
 14 15  1  0  0  0  0
 15 16  1  0  0  0  0
 16 17  1  0  0  0  0
 17 18  1  0  0  0  0
 18 13  1  0  0  0  0
 11 19  1  0  0  0  0
 19 20  2  0  0  0  0
 20 21  1  0  0  0  0
 22 11  2  0  0  0  0
 21 23  1  0  0  0  0
 10 24  2  0  0  0  0
  6 25  1  0  0  0  0
 18 26  1  1  0  0  0
 22 21  1  0  0  0  0
M  END
>  <Mol_ID> (658)
3427

>  <Formula> (658)
C17H22ClFN6O

>  <MolWeight> (658)
380.8475832

>  <Cat> (658)
S8442

>  <Name> (658)
TAK-659

>  <Synonyms> (658)
N/A

>  <Target> (658)
Syk,FLT3,ZAP-70,JAK3,VEGFR2

>  <Form> (658)
hydrochloride 

>  <CAS> (658)
1952251-28-3

>  <URL> (658)
http://www.selleckchem.com/products/tak-659.html

$$$$
PF-06273340.cdx
csChFnd80/05071909292D

 34 37  0  0  0  0  0  0  0  0999 V2000
    1.2124    4.8787    0.0000 N   0  0  0  0  0  0  0  0  0  0  0  0
    1.2124    3.4787    0.0000 C   0  0  0  0  0  0  0  0  0  0  0  0
    2.4249    2.7787    0.0000 N   0  0  0  0  0  0  0  0  0  0  0  0
    3.6373    3.4787    0.0000 C   0  0  0  0  0  0  0  0  0  0  0  0
    3.6373    4.8787    0.0000 C   0  0  0  0  0  0  0  0  0  0  0  0
    2.4249    5.5787    0.0000 C   0  0  0  0  0  0  0  0  0  0  0  0
    4.9688    3.0461    0.0000 N   0  0  0  0  0  0  0  0  0  0  0  0
    5.7917    4.1787    0.0000 C   0  0  0  0  0  0  0  0  0  0  0  0
    4.9688    5.3114    0.0000 C   0  0  0  0  0  0  0  0  0  0  0  0
    0.0000    2.7787    0.0000 N   0  0  0  0  0  0  0  0  0  0  0  0
    5.4014    1.7146    0.0000 C   0  0  0  0  0  0  0  0  0  0  0  0
    4.4646    0.6742    0.0000 C   0  0  0  0  0  0  0  0  0  0  0  0
    6.7708    1.4236    0.0000 C   0  0  0  0  0  0  0  0  0  0  0  0
    5.7638    0.3623    0.0000 C   0  0  0  0  0  0  0  0  0  0  0  0
    7.1161    0.0000    0.0000 O   0  0  0  0  0  0  0  0  0  0  0  0
    5.4014    6.6428    0.0000 C   0  0  0  0  0  0  0  0  0  0  0  0
    4.4646    7.6833    0.0000 O   0  0  0  0  0  0  0  0  0  0  0  0
    6.7708    6.9339    0.0000 C   0  0  0  0  0  0  0  0  0  0  0  0
    7.7076    5.8935    0.0000 C   0  0  0  0  0  0  0  0  0  0  0  0
    9.0770    6.1846    0.0000 N   0  0  0  0  0  0  0  0  0  0  0  0
    9.5096    7.5161    0.0000 C   0  0  0  0  0  0  0  0  0  0  0  0
    8.5728    8.5565    0.0000 C   0  0  0  0  0  0  0  0  0  0  0  0
    7.2034    8.2654    0.0000 C   0  0  0  0  0  0  0  0  0  0  0  0
    9.0055    9.8880    0.0000 N   0  0  0  0  0  0  0  0  0  0  0  0
   10.3749   10.1790    0.0000 C   0  0  0  0  0  0  0  0  0  0  0  0
   10.8075   11.5105    0.0000 C   0  0  0  0  0  0  0  0  0  0  0  0
   11.3117    9.1386    0.0000 O   0  0  0  0  0  0  0  0  0  0  0  0
   12.1769   11.8016    0.0000 C   0  0  0  0  0  0  0  0  0  0  0  0
   13.1137   10.7612    0.0000 C   0  0  0  0  0  0  0  0  0  0  0  0
   14.4831   11.0523    0.0000 C   0  0  0  0  0  0  0  0  0  0  0  0
   14.9157   12.3837    0.0000 C   0  0  0  0  0  0  0  0  0  0  0  0
   13.9789   13.4241    0.0000 C   0  0  0  0  0  0  0  0  0  0  0  0
   12.6095   13.1331    0.0000 N   0  0  0  0  0  0  0  0  0  0  0  0
   16.2851   12.6748    0.0000 Cl  0  0  0  0  0  0  0  0  0  0  0  0
  1  2  2  0  0  0  0
  2  3  1  0  0  0  0
  3  4  2  0  0  0  0
  4  5  1  0  0  0  0
  5  6  2  0  0  0  0
  6  1  1  0  0  0  0
  4  7  1  0  0  0  0
  7  8  1  0  0  0  0
  8  9  2  0  0  0  0
  9  5  1  0  0  0  0
  2 10  1  0  0  0  0
  7 11  1  0  0  0  0
 11 12  1  0  0  0  0
 11 13  1  0  0  0  0
 11 14  1  0  0  0  0
 14 15  1  0  0  0  0
  9 16  1  0  0  0  0
 16 17  2  0  0  0  0
 16 18  1  0  0  0  0
 18 19  2  0  0  0  0
 19 20  1  0  0  0  0
 20 21  2  0  0  0  0
 21 22  1  0  0  0  0
 22 23  2  0  0  0  0
 23 18  1  0  0  0  0
 22 24  1  0  0  0  0
 24 25  1  0  0  0  0
 25 26  1  0  0  0  0
 25 27  2  0  0  0  0
 26 28  1  0  0  0  0
 28 29  2  0  0  0  0
 29 30  1  0  0  0  0
 30 31  2  0  0  0  0
 31 32  1  0  0  0  0
 32 33  2  0  0  0  0
 33 28  1  0  0  0  0
 31 34  1  0  0  0  0
M  END
>  <Mol_ID> (659)
3432

>  <Formula> (659)
C23H22ClN7O3

>  <MolWeight> (659)
479.91888

>  <Cat> (659)
S8407

>  <Name> (659)
PF-06273340

>  <Synonyms> (659)
N/A

>  <Target> (659)
TrkC,TrkB,TrkA

>  <Form> (659)
free base

>  <CAS> (659)
1402438-74-7

>  <URL> (659)
http://www.selleckchem.com/products/pf-06273340.html

$$$$
GSK'872 (GSK2399872A).cdx
csChFnd80/05071909292D

 26 29  0  0  0  0  0  0  0  0999 V2000
    3.6373    2.1000    0.0000 C   0  0  0  0  0  0  0  0  0  0  0  0
    3.6373    0.7000    0.0000 C   0  0  0  0  0  0  0  0  0  0  0  0
    4.8497    0.0000    0.0000 C   0  0  0  0  0  0  0  0  0  0  0  0
    6.0622    0.7000    0.0000 C   0  0  0  0  0  0  0  0  0  0  0  0
    6.0622    2.1000    0.0000 C   0  0  0  0  0  0  0  0  0  0  0  0
    4.8497    2.8000    0.0000 C   0  0  0  0  0  0  0  0  0  0  0  0
    7.2746    0.0000    0.0000 N   0  0  0  0  0  0  0  0  0  0  0  0
    8.4870    0.7000    0.0000 C   0  0  0  0  0  0  0  0  0  0  0  0
    8.4870    2.1000    0.0000 C   0  0  0  0  0  0  0  0  0  0  0  0
    7.2746    2.8000    0.0000 C   0  0  0  0  0  0  0  0  0  0  0  0
    2.4249    2.8000    0.0000 S   0  0  0  0  0  0  0  0  0  0  0  0
    1.2124    2.1000    0.0000 C   0  0  0  0  0  0  0  0  0  0  0  0
    0.0000    2.8000    0.0000 C   0  0  0  0  0  0  0  0  0  0  0  0
    1.2124    0.7000    0.0000 C   0  0  0  0  0  0  0  0  0  0  0  0
    1.4349    3.7899    0.0000 O   0  0  0  0  0  0  0  0  0  0  0  0
    3.4148    3.7899    0.0000 O   0  0  0  0  0  0  0  0  0  0  0  0
    7.2746    4.2000    0.0000 N   0  0  0  0  0  0  0  0  0  0  0  0
    8.4870    4.9000    0.0000 C   0  0  0  0  0  0  0  0  0  0  0  0
    9.6995    4.2000    0.0000 C   0  0  0  0  0  0  0  0  0  0  0  0
   10.9119    4.9000    0.0000 C   0  0  0  0  0  0  0  0  0  0  0  0
   10.9119    6.3000    0.0000 C   0  0  0  0  0  0  0  0  0  0  0  0
    9.6995    7.0000    0.0000 C   0  0  0  0  0  0  0  0  0  0  0  0
    8.4870    6.3000    0.0000 C   0  0  0  0  0  0  0  0  0  0  0  0
   12.2434    4.4674    0.0000 N   0  0  0  0  0  0  0  0  0  0  0  0
   13.0663    5.6000    0.0000 C   0  0  0  0  0  0  0  0  0  0  0  0
   12.2434    6.7326    0.0000 S   0  0  0  0  0  0  0  0  0  0  0  0
  1  2  2  0  0  0  0
  2  3  1  0  0  0  0
  3  4  2  0  0  0  0
  4  5  1  0  0  0  0
  5  6  2  0  0  0  0
  6  1  1  0  0  0  0
  4  7  1  0  0  0  0
  7  8  2  0  0  0  0
  8  9  1  0  0  0  0
  9 10  2  0  0  0  0
 10  5  1  0  0  0  0
  1 11  1  0  0  0  0
 11 12  1  0  0  0  0
 12 13  1  0  0  0  0
 12 14  1  0  0  0  0
 11 15  2  0  0  0  0
 11 16  2  0  0  0  0
 10 17  1  0  0  0  0
 17 18  1  0  0  0  0
 18 19  2  0  0  0  0
 19 20  1  0  0  0  0
 20 21  2  0  0  0  0
 21 22  1  0  0  0  0
 22 23  2  0  0  0  0
 23 18  1  0  0  0  0
 20 24  1  0  0  0  0
 24 25  2  0  0  0  0
 25 26  1  0  0  0  0
 26 21  1  0  0  0  0
M  END
>  <Mol_ID> (660)
3435

>  <Formula> (660)
C19H17N3O2S2

>  <MolWeight> (660)
383.48718

>  <Cat> (660)
S8465

>  <Name> (660)
GSK'872 (GSK2399872A)

>  <Synonyms> (660)
N/A

>  <Target> (660)
RIP3K

>  <Form> (660)
Free base

>  <CAS> (660)
1346546-69-7

>  <URL> (660)
http://www.selleckchem.com/products/GSK872-GSK2399872A.html

$$$$
TAK-117 (INK-1117,MLN-1117 ).cdx
csChFnd80/05071909292D

 27 31  0  0  0  0  0  0  0  0999 V2000
    5.8723    2.1000    0.0000 N   0  0  0  0  0  0  0  0  0  0  0  0
    5.8723    0.7000    0.0000 C   0  0  0  0  0  0  0  0  0  0  0  0
    7.0848    0.0000    0.0000 C   0  0  0  0  0  0  0  0  0  0  0  0
    8.2972    0.7000    0.0000 C   0  0  0  0  0  0  0  0  0  0  0  0
    8.2972    2.1000    0.0000 C   0  0  0  0  0  0  0  0  0  0  0  0
    7.0848    2.8000    0.0000 C   0  0  0  0  0  0  0  0  0  0  0  0
    4.5408    2.5326    0.0000 C   0  0  0  0  0  0  0  0  0  0  0  0
    3.7179    1.4000    0.0000 C   0  0  0  0  0  0  0  0  0  0  0  0
    4.5408    0.2674    0.0000 N   0  0  0  0  0  0  0  0  0  0  0  0
    9.5096    2.8000    0.0000 C   0  0  0  0  0  0  0  0  0  0  0  0
    4.1082    3.8641    0.0000 C   0  0  0  0  0  0  0  0  0  0  0  0
    2.7388    4.1552    0.0000 N   0  0  0  0  0  0  0  0  0  0  0  0
    5.0450    4.9045    0.0000 O   0  0  0  0  0  0  0  0  0  0  0  0
    2.3062    5.4867    0.0000 C   0  0  0  0  0  0  0  0  0  0  0  0
    0.9368    5.7777    0.0000 C   0  0  0  0  0  0  0  0  0  0  0  0
    0.0000    4.7373    0.0000 O   0  0  0  0  0  0  0  0  0  0  0  0
    0.4326    3.4059    0.0000 C   0  0  0  0  0  0  0  0  0  0  0  0
    1.8020    3.1148    0.0000 C   0  0  0  0  0  0  0  0  0  0  0  0
   10.7221    2.1000    0.0000 C   0  0  0  0  0  0  0  0  0  0  0  0
   11.9345    2.8000    0.0000 C   0  0  0  0  0  0  0  0  0  0  0  0
   11.9345    4.2000    0.0000 C   0  0  0  0  0  0  0  0  0  0  0  0
   10.7221    4.9000    0.0000 C   0  0  0  0  0  0  0  0  0  0  0  0
    9.5096    4.2000    0.0000 C   0  0  0  0  0  0  0  0  0  0  0  0
   13.2660    2.3674    0.0000 N   0  0  0  0  0  0  0  0  0  0  0  0
   14.0889    3.5000    0.0000 C   0  0  0  0  0  0  0  0  0  0  0  0
   13.2660    4.6326    0.0000 O   0  0  0  0  0  0  0  0  0  0  0  0
   15.4889    3.5000    0.0000 N   0  0  0  0  0  0  0  0  0  0  0  0
  1  2  1  0  0  0  0
  2  3  1  0  0  0  0
  3  4  2  0  0  0  0
  4  5  1  0  0  0  0
  5  6  2  0  0  0  0
  6  1  1  0  0  0  0
  1  7  1  0  0  0  0
  7  8  2  0  0  0  0
  8  9  1  0  0  0  0
  9  2  2  0  0  0  0
  5 10  1  0  0  0  0
  7 11  1  0  0  0  0
 11 12  1  0  0  0  0
 11 13  2  0  0  0  0
 12 14  1  0  0  0  0
 14 15  1  0  0  0  0
 15 16  1  0  0  0  0
 16 17  1  0  0  0  0
 17 18  1  0  0  0  0
 18 12  1  0  0  0  0
 10 19  2  0  0  0  0
 19 20  1  0  0  0  0
 20 21  2  0  0  0  0
 21 22  1  0  0  0  0
 22 23  2  0  0  0  0
 23 10  1  0  0  0  0
 20 24  1  0  0  0  0
 24 25  2  0  0  0  0
 25 26  1  0  0  0  0
 26 21  1  0  0  0  0
 25 27  1  0  0  0  0
M  END
>  <Mol_ID> (661)
3437

>  <Formula> (661)
C19H17N5O3

>  <MolWeight> (661)
363.36998

>  <Cat> (661)
S8581

>  <Name> (661)
Serabelisib (INK-1117,MLN-1117,TAK-117)

>  <Synonyms> (661)
N/A

>  <Target> (661)
PI3K 

>  <Form> (661)
Free base

>  <CAS> (661)
1268454-23-4

>  <URL> (661)
http://www.selleckchem.com/products/tak-117-ink-1117-mln-1117.html

$$$$
Sodium dichloroacetate(DCA).cdx
csChFnd80/05071909292D

  7  6  0  0  0  0  0  0  0  0999 V2000
    1.2124    1.4000    0.0000 C   0  0  0  0  0  0  0  0  0  0  0  0
    2.4249    2.1000    0.0000 C   0  0  0  0  0  0  0  0  0  0  0  0
    0.0000    2.1000    0.0000 Cl  0  0  0  0  0  0  0  0  0  0  0  0
    1.2124    0.0000    0.0000 Cl  0  0  0  0  0  0  0  0  0  0  0  0
    3.6373    1.4000    0.0000 O   0  0  0  0  0  0  0  0  0  0  0  0
    4.8497    2.1000    0.0000 Na  0  0  0  0  0  0  0  0  0  0  0  0
    2.4249    3.5000    0.0000 O   0  0  0  0  0  0  0  0  0  0  0  0
  1  2  1  0  0  0  0
  1  3  1  0  0  0  0
  1  4  1  0  0  0  0
  2  5  1  0  0  0  0
  2  7  2  0  0  0  0
  5  6  1  0  0  0  0
M  END
>  <Mol_ID> (662)
3439

>  <Formula> (662)
C2HCl2NaO2

>  <MolWeight> (662)
150.92391

>  <Cat> (662)
S8615

>  <Name> (662)
Sodium dichloroacetate (DCA)

>  <Synonyms> (662)
bichloroacetic acid, BCA

>  <Target> (662)
PDK

>  <Form> (662)
sodium salt

>  <CAS> (662)
2156-56-1

>  <URL> (662)
http://www.selleckchem.com/products/sodium-dichloroacetate-dca.html

$$$$
TSR-011 (Belizatinib).cdx
csChFnd80/05071909292D

 42 46  0  0  0  0  0  0  0  0999 V2000
    7.2746    3.5000    0.0000 C   0  0  0  0  0  0  0  0  0  0  0  0
    7.2746    2.1000    0.0000 C   0  0  0  0  0  0  0  0  0  0  0  0
    8.4870    1.4000    0.0000 C   0  0  0  0  0  0  0  0  0  0  0  0
    9.6995    2.1000    0.0000 C   0  0  0  0  0  0  0  0  0  0  0  0
    9.6995    3.5000    0.0000 C   0  0  0  0  0  0  0  0  0  0  0  0
    8.4870    4.2000    0.0000 C   0  0  0  0  0  0  0  0  0  0  0  0
   11.0310    1.6674    0.0000 N   0  0  0  0  0  0  0  0  0  0  0  0
   11.8539    2.8000    0.0000 C   0  0  0  0  0  0  0  0  0  0  0  0
   11.0310    3.9326    0.0000 N   0  0  0  0  0  0  0  0  0  0  0  0
    6.0622    4.2000    0.0000 C   0  0  0  0  0  0  0  0  0  0  0  0
    4.8497    3.5000    0.0000 N   0  0  0  0  0  0  0  0  0  0  0  0
    3.6373    4.2000    0.0000 C   0  0  0  0  0  0  0  0  0  0  0  0
    2.4249    3.5000    0.0000 C   0  0  0  0  0  0  0  0  0  0  0  0
    2.4249    2.1000    0.0000 C   0  0  0  0  0  0  0  0  0  0  0  0
    3.6373    1.4000    0.0000 C   0  0  0  0  0  0  0  0  0  0  0  0
    4.8497    2.1000    0.0000 C   0  0  0  0  0  0  0  0  0  0  0  0
    1.2124    1.4000    0.0000 C   0  0  0  0  0  0  0  0  0  0  0  0
    0.0000    2.1000    0.0000 C   0  0  0  0  0  0  0  0  0  0  0  0
    1.2124    0.0000    0.0000 C   0  0  0  0  0  0  0  0  0  0  0  0
    0.0000    0.7000    0.0000 O   0  0  0  0  0  0  0  0  0  0  0  0
   13.2539    2.8000    0.0000 N   0  0  0  0  0  0  0  0  0  0  0  0
   13.9539    1.5876    0.0000 C   0  0  0  0  0  0  0  0  0  0  0  0
   13.2539    0.3751    0.0000 O   0  0  0  0  0  0  0  0  0  0  0  0
   15.3539    1.5876    0.0000 C   0  0  0  0  0  0  0  0  0  0  0  0
   16.0539    0.3751    0.0000 C   0  0  0  0  0  0  0  0  0  0  0  0
   17.4539    0.3751    0.0000 C   0  0  0  0  0  0  0  0  0  0  0  0
   18.1539    1.5876    0.0000 C   0  0  0  0  0  0  0  0  0  0  0  0
   17.4539    2.8000    0.0000 C   0  0  0  0  0  0  0  0  0  0  0  0
   16.0539    2.8000    0.0000 C   0  0  0  0  0  0  0  0  0  0  0  0
   19.5539    1.5876    0.0000 F   0  0  0  0  0  0  0  0  0  0  0  0
   11.4636    5.2641    0.0000 C   0  0  2  0  0  0  0  0  0  0  0  0
   12.8330    5.5552    0.0000 C   0  0  0  0  0  0  0  0  0  0  0  0
   13.2656    6.8867    0.0000 C   0  0  0  0  0  0  0  0  0  0  0  0
   12.3288    7.9271    0.0000 C   0  0  1  0  0  0  0  0  0  0  0  0
   10.9594    7.6360    0.0000 C   0  0  0  0  0  0  0  0  0  0  0  0
   10.5268    6.3045    0.0000 C   0  0  0  0  0  0  0  0  0  0  0  0
   12.7615    9.2585    0.0000 C   0  0  0  0  0  0  0  0  0  0  0  0
   14.1309    9.5496    0.0000 N   0  0  0  0  0  0  0  0  0  0  0  0
   11.8247   10.2989    0.0000 O   0  0  0  0  0  0  0  0  0  0  0  0
   14.5635   10.8811    0.0000 C   0  0  0  0  0  0  0  0  0  0  0  0
   13.6267   11.9215    0.0000 C   0  0  0  0  0  0  0  0  0  0  0  0
   15.9329   11.1722    0.0000 C   0  0  0  0  0  0  0  0  0  0  0  0
  1  2  2  0  0  0  0
  2  3  1  0  0  0  0
  3  4  2  0  0  0  0
  4  5  1  0  0  0  0
  5  6  2  0  0  0  0
  6  1  1  0  0  0  0
  4  7  1  0  0  0  0
  7  8  1  0  0  0  0
  8  9  1  0  0  0  0
  9  5  1  0  0  0  0
  1 10  1  0  0  0  0
 10 11  1  0  0  0  0
 11 12  1  0  0  0  0
 12 13  1  0  0  0  0
 13 14  1  0  0  0  0
 14 15  1  0  0  0  0
 15 16  1  0  0  0  0
 16 11  1  0  0  0  0
 14 17  1  0  0  0  0
 17 18  1  0  0  0  0
 17 19  1  0  0  0  0
 17 20  1  0  0  0  0
  8 21  2  0  0  0  0
 21 22  1  0  0  0  0
 22 23  2  0  0  0  0
 22 24  1  0  0  0  0
 24 25  2  0  0  0  0
 25 26  1  0  0  0  0
 26 27  2  0  0  0  0
 27 28  1  0  0  0  0
 28 29  2  0  0  0  0
 29 24  1  0  0  0  0
 27 30  1  0  0  0  0
 31  9  1  1  0  0  0
 31 32  1  0  0  0  0
 32 33  1  0  0  0  0
 33 34  1  0  0  0  0
 34 35  1  0  0  0  0
 35 36  1  0  0  0  0
 36 31  1  0  0  0  0
 34 37  1  1  0  0  0
 37 38  1  0  0  0  0
 37 39  2  0  0  0  0
 38 40  1  0  0  0  0
 40 41  1  0  0  0  0
 40 42  1  0  0  0  0
M  END
>  <Mol_ID> (663)
3440

>  <Formula> (663)
C33H44FN5O3

>  <MolWeight> (663)
577.7325632

>  <Cat> (663)
S8511

>  <Name> (663)
Belizatinib (TSR-011)

>  <Synonyms> (663)
N/A

>  <Target> (663)
ALK,TRK

>  <Form> (663)
free base

>  <CAS> (663)
1357920-84-3

>  <URL> (663)
http://www.selleckchem.com/products/tsr-011-belizatinib.html

$$$$
Autophinib.cdx
csChFnd80/05071909292D

 24 26  0  0  0  0  0  0  0  0999 V2000
    2.3451    3.5000    0.0000 C   0  0  0  0  0  0  0  0  0  0  0  0
    2.3451    2.1000    0.0000 C   0  0  0  0  0  0  0  0  0  0  0  0
    3.5575    1.4000    0.0000 C   0  0  0  0  0  0  0  0  0  0  0  0
    4.7699    2.1000    0.0000 N   0  0  0  0  0  0  0  0  0  0  0  0
    4.7699    3.5000    0.0000 C   0  0  0  0  0  0  0  0  0  0  0  0
    3.5575    4.2000    0.0000 N   0  0  0  0  0  0  0  0  0  0  0  0
    3.5575    0.0000    0.0000 Cl  0  0  0  0  0  0  0  0  0  0  0  0
    1.1326    4.2000    0.0000 N   0  0  0  0  0  0  0  0  0  0  0  0
    5.9824    4.2000    0.0000 O   0  0  0  0  0  0  0  0  0  0  0  0
    5.9824    5.6000    0.0000 C   0  0  0  0  0  0  0  0  0  0  0  0
    7.1948    6.3000    0.0000 C   0  0  0  0  0  0  0  0  0  0  0  0
    7.1948    7.7000    0.0000 C   0  0  0  0  0  0  0  0  0  0  0  0
    5.9824    8.4000    0.0000 C   0  0  0  0  0  0  0  0  0  0  0  0
    4.7699    7.7000    0.0000 C   0  0  0  0  0  0  0  0  0  0  0  0
    4.7699    6.3000    0.0000 C   0  0  0  0  0  0  0  0  0  0  0  0
    5.9824    9.8000    0.0000 N   0  3  0  0  0  0  0  0  0  0  0  0
    4.7699   10.5000    0.0000 O   0  0  0  0  0  0  0  0  0  0  0  0
    7.1948   10.5000    0.0000 O   0  5  0  0  0  0  0  0  0  0  0  0
    1.1326    5.6000    0.0000 C   0  0  0  0  0  0  0  0  0  0  0  0
    2.2652    6.4229    0.0000 C   0  0  0  0  0  0  0  0  0  0  0  0
    1.8326    7.7544    0.0000 C   0  0  0  0  0  0  0  0  0  0  0  0
    0.4326    7.7544    0.0000 N   0  0  0  0  0  0  0  0  0  0  0  0
    0.0000    6.4229    0.0000 N   0  0  0  0  0  0  0  0  0  0  0  0
    2.6555    8.8870    0.0000 C   0  0  0  0  0  0  0  0  0  0  0  0
  1  2  2  0  0  0  0
  2  3  1  0  0  0  0
  3  4  2  0  0  0  0
  4  5  1  0  0  0  0
  5  6  2  0  0  0  0
  6  1  1  0  0  0  0
  3  7  1  0  0  0  0
  1  8  1  0  0  0  0
  5  9  1  0  0  0  0
  9 10  1  0  0  0  0
 10 11  2  0  0  0  0
 11 12  1  0  0  0  0
 12 13  2  0  0  0  0
 13 14  1  0  0  0  0
 14 15  2  0  0  0  0
 15 10  1  0  0  0  0
 13 16  1  0  0  0  0
  8 19  1  0  0  0  0
 19 20  1  0  0  0  0
 20 21  2  0  0  0  0
 21 22  1  0  0  0  0
 22 23  1  0  0  0  0
 23 19  2  0  0  0  0
 21 24  1  0  0  0  0
 16 17  2  0  0  0  0
 16 18  1  0  0  0  0
M  END
>  <Mol_ID> (664)
3442

>  <Formula> (664)
C14H11ClN6O3

>  <MolWeight> (664)
346.72854

>  <Cat> (664)
S8596

>  <Name> (664)
Autophinib

>  <Synonyms> (664)
N/A

>  <Target> (664)
autophagy

>  <Form> (664)
free base

>  <CAS> (664)
1644443-47-9

>  <URL> (664)
http://www.selleckchem.com/products/autophinib.html

$$$$
PRN1371.cdx
csChFnd80/05071909292D

 38 41  0  0  0  0  0  0  0  0999 V2000
    1.2124   10.5000    0.0000 N   0  0  0  0  0  0  0  0  0  0  0  0
    1.2124    9.1000    0.0000 C   0  0  0  0  0  0  0  0  0  0  0  0
    2.4249    8.4000    0.0000 N   0  0  0  0  0  0  0  0  0  0  0  0
    3.6373    9.1000    0.0000 C   0  0  0  0  0  0  0  0  0  0  0  0
    3.6373   10.5000    0.0000 C   0  0  0  0  0  0  0  0  0  0  0  0
    2.4249   11.2000    0.0000 C   0  0  0  0  0  0  0  0  0  0  0  0
    4.8497    8.4000    0.0000 N   0  0  0  0  0  0  0  0  0  0  0  0
    6.0622    9.1000    0.0000 C   0  0  0  0  0  0  0  0  0  0  0  0
    6.0622   10.5000    0.0000 C   0  0  0  0  0  0  0  0  0  0  0  0
    4.8497   11.2000    0.0000 C   0  0  0  0  0  0  0  0  0  0  0  0
    0.0000    8.4000    0.0000 N   0  0  0  0  0  0  0  0  0  0  0  0
    0.0000    7.0000    0.0000 C   0  0  0  0  0  0  0  0  0  0  0  0
    7.2746    8.4000    0.0000 O   0  0  0  0  0  0  0  0  0  0  0  0
    7.2746   11.2000    0.0000 C   0  0  0  0  0  0  0  0  0  0  0  0
    8.4870   10.5000    0.0000 C   0  0  0  0  0  0  0  0  0  0  0  0
    9.6995   11.2000    0.0000 C   0  0  0  0  0  0  0  0  0  0  0  0
    9.6995   12.6000    0.0000 C   0  0  0  0  0  0  0  0  0  0  0  0
    8.4870   13.3000    0.0000 C   0  0  0  0  0  0  0  0  0  0  0  0
    7.2746   12.6000    0.0000 C   0  0  0  0  0  0  0  0  0  0  0  0
    6.0622   13.3000    0.0000 Cl  0  0  0  0  0  0  0  0  0  0  0  0
    8.4870    9.1000    0.0000 Cl  0  0  0  0  0  0  0  0  0  0  0  0
   10.9119   10.5000    0.0000 O   0  0  0  0  0  0  0  0  0  0  0  0
   12.1244   11.2000    0.0000 C   0  0  0  0  0  0  0  0  0  0  0  0
    8.4870   14.7000    0.0000 O   0  0  0  0  0  0  0  0  0  0  0  0
    9.6995   15.4000    0.0000 C   0  0  0  0  0  0  0  0  0  0  0  0
    4.8497    7.0000    0.0000 C   0  0  0  0  0  0  0  0  0  0  0  0
    6.0622    6.3000    0.0000 C   0  0  0  0  0  0  0  0  0  0  0  0
    6.0622    4.9000    0.0000 C   0  0  0  0  0  0  0  0  0  0  0  0
    7.2746    4.2000    0.0000 N   0  0  0  0  0  0  0  0  0  0  0  0
    7.2746    2.8000    0.0000 C   0  0  0  0  0  0  0  0  0  0  0  0
    8.4870    2.1000    0.0000 C   0  0  0  0  0  0  0  0  0  0  0  0
    9.6995    2.8000    0.0000 N   0  0  0  0  0  0  0  0  0  0  0  0
    9.6995    4.2000    0.0000 C   0  0  0  0  0  0  0  0  0  0  0  0
    8.4870    4.9000    0.0000 C   0  0  0  0  0  0  0  0  0  0  0  0
   10.9119    2.1000    0.0000 C   0  0  0  0  0  0  0  0  0  0  0  0
   12.1244    2.8000    0.0000 O   0  0  0  0  0  0  0  0  0  0  0  0
   10.9119    0.7000    0.0000 C   0  0  0  0  0  0  0  0  0  0  0  0
   12.1244    0.0000    0.0000 C   0  0  0  0  0  0  0  0  0  0  0  0
  1  2  2  0  0  0  0
  2  3  1  0  0  0  0
  3  4  2  0  0  0  0
  4  5  1  0  0  0  0
  5  6  2  0  0  0  0
  6  1  1  0  0  0  0
  4  7  1  0  0  0  0
  7  8  1  0  0  0  0
  8  9  1  0  0  0  0
  9 10  2  0  0  0  0
 10  5  1  0  0  0  0
  2 11  1  0  0  0  0
 11 12  1  0  0  0  0
  8 13  2  0  0  0  0
  9 14  1  0  0  0  0
 14 15  2  0  0  0  0
 15 16  1  0  0  0  0
 16 17  2  0  0  0  0
 17 18  1  0  0  0  0
 18 19  2  0  0  0  0
 19 14  1  0  0  0  0
 19 20  1  0  0  0  0
 15 21  1  0  0  0  0
 16 22  1  0  0  0  0
 22 23  1  0  0  0  0
 18 24  1  0  0  0  0
 24 25  1  0  0  0  0
  7 26  1  0  0  0  0
 26 27  1  0  0  0  0
 27 28  1  0  0  0  0
 28 29  1  0  0  0  0
 29 30  1  0  0  0  0
 30 31  1  0  0  0  0
 31 32  1  0  0  0  0
 32 33  1  0  0  0  0
 33 34  1  0  0  0  0
 34 29  1  0  0  0  0
 32 35  1  0  0  0  0
 35 36  2  0  0  0  0
 35 37  1  0  0  0  0
 37 38  2  0  0  0  0
M  END
>  <Mol_ID> (665)
3445

>  <Formula> (665)
C26H30Cl2N6O4

>  <MolWeight> (665)
561.4602

>  <Cat> (665)
S8578

>  <Name> (665)
PRN1371

>  <Synonyms> (665)
N/A

>  <Target> (665)
FGFR1,FGFR2,FGFR3,CSF1R,FGFR4

>  <Form> (665)
free base

>  <CAS> (665)
1802929-43-6

>  <URL> (665)
http://www.selleckchem.com/products/prn1371.html

$$$$
Gilteritinib (ASP2215).cdx
csChFnd80/05071909292D

 40 44  0  0  0  0  0  0  0  0999 V2000
    2.4249    6.3000    0.0000 N   0  0  0  0  0  0  0  0  0  0  0  0
    2.4249    4.9000    0.0000 C   0  0  0  0  0  0  0  0  0  0  0  0
    3.6373    4.2000    0.0000 C   0  0  0  0  0  0  0  0  0  0  0  0
    4.8497    4.9000    0.0000 N   0  0  0  0  0  0  0  0  0  0  0  0
    4.8497    6.3000    0.0000 C   0  0  0  0  0  0  0  0  0  0  0  0
    3.6373    7.0000    0.0000 C   0  0  0  0  0  0  0  0  0  0  0  0
    1.2124    4.2000    0.0000 C   0  0  0  0  0  0  0  0  0  0  0  0
    0.0000    4.9000    0.0000 C   0  0  0  0  0  0  0  0  0  0  0  0
    3.6373    8.4000    0.0000 C   0  0  0  0  0  0  0  0  0  0  0  0
    2.4249    9.1000    0.0000 N   0  0  0  0  0  0  0  0  0  0  0  0
    4.8497    9.1000    0.0000 O   0  0  0  0  0  0  0  0  0  0  0  0
    3.6373    2.8000    0.0000 N   0  0  0  0  0  0  0  0  0  0  0  0
    2.4249    2.1000    0.0000 C   0  0  0  0  0  0  0  0  0  0  0  0
    6.0622    7.0000    0.0000 N   0  0  0  0  0  0  0  0  0  0  0  0
    7.2746    6.3000    0.0000 C   0  0  0  0  0  0  0  0  0  0  0  0
    7.2746    4.9000    0.0000 C   0  0  0  0  0  0  0  0  0  0  0  0
    8.4870    4.2000    0.0000 C   0  0  0  0  0  0  0  0  0  0  0  0
    9.6995    4.9000    0.0000 C   0  0  0  0  0  0  0  0  0  0  0  0
    9.6995    6.3000    0.0000 C   0  0  0  0  0  0  0  0  0  0  0  0
    8.4870    7.0000    0.0000 C   0  0  0  0  0  0  0  0  0  0  0  0
   10.9119    7.0000    0.0000 O   0  0  0  0  0  0  0  0  0  0  0  0
   12.1244    6.3000    0.0000 C   0  0  0  0  0  0  0  0  0  0  0  0
   10.9119    4.2000    0.0000 N   0  0  0  0  0  0  0  0  0  0  0  0
   10.9119    2.8000    0.0000 C   0  0  0  0  0  0  0  0  0  0  0  0
   12.1244    2.1000    0.0000 C   0  0  0  0  0  0  0  0  0  0  0  0
   13.3368    2.8000    0.0000 C   0  0  0  0  0  0  0  0  0  0  0  0
   13.3368    4.2000    0.0000 C   0  0  0  0  0  0  0  0  0  0  0  0
   12.1244    4.9000    0.0000 C   0  0  0  0  0  0  0  0  0  0  0  0
   14.5492    2.1000    0.0000 N   0  0  0  0  0  0  0  0  0  0  0  0
   14.5492    0.7000    0.0000 C   0  0  0  0  0  0  0  0  0  0  0  0
   15.7617    0.0000    0.0000 C   0  0  0  0  0  0  0  0  0  0  0  0
   16.9741    0.7000    0.0000 N   0  0  0  0  0  0  0  0  0  0  0  0
   16.9741    2.1000    0.0000 C   0  0  0  0  0  0  0  0  0  0  0  0
   15.7617    2.8000    0.0000 C   0  0  0  0  0  0  0  0  0  0  0  0
   18.1865    0.0000    0.0000 C   0  0  0  0  0  0  0  0  0  0  0  0
    1.2124    2.8000    0.0000 C   0  0  0  0  0  0  0  0  0  0  0  0
    0.0000    2.1000    0.0000 C   0  0  0  0  0  0  0  0  0  0  0  0
    0.0000    0.7000    0.0000 O   0  0  0  0  0  0  0  0  0  0  0  0
    1.2124    0.0000    0.0000 C   0  0  0  0  0  0  0  0  0  0  0  0
    2.4249    0.7000    0.0000 C   0  0  0  0  0  0  0  0  0  0  0  0
  1  2  2  0  0  0  0
  2  3  1  0  0  0  0
  3  4  2  0  0  0  0
  4  5  1  0  0  0  0
  5  6  2  0  0  0  0
  6  1  1  0  0  0  0
  2  7  1  0  0  0  0
  7  8  1  0  0  0  0
  6  9  1  0  0  0  0
  9 10  1  0  0  0  0
  9 11  2  0  0  0  0
  3 12  1  0  0  0  0
 12 13  1  0  0  0  0
  5 14  1  0  0  0  0
 14 15  1  0  0  0  0
 15 16  2  0  0  0  0
 16 17  1  0  0  0  0
 17 18  2  0  0  0  0
 18 19  1  0  0  0  0
 19 20  2  0  0  0  0
 20 15  1  0  0  0  0
 19 21  1  0  0  0  0
 21 22  1  0  0  0  0
 18 23  1  0  0  0  0
 23 24  1  0  0  0  0
 24 25  1  0  0  0  0
 25 26  1  0  0  0  0
 26 27  1  0  0  0  0
 27 28  1  0  0  0  0
 28 23  1  0  0  0  0
 26 29  1  0  0  0  0
 29 30  1  0  0  0  0
 30 31  1  0  0  0  0
 31 32  1  0  0  0  0
 32 33  1  0  0  0  0
 33 34  1  0  0  0  0
 34 29  1  0  0  0  0
 32 35  1  0  0  0  0
 13 36  1  0  0  0  0
 36 37  1  0  0  0  0
 37 38  1  0  0  0  0
 38 39  1  0  0  0  0
 39 40  1  0  0  0  0
 40 13  1  0  0  0  0
M  END
>  <Mol_ID> (666)
3448

>  <Formula> (666)
C29H44N8O3

>  <MolWeight> (666)
552.71146

>  <Cat> (666)
S7754

>  <Name> (666)
Gilteritinib (ASP2215)

>  <Synonyms> (666)
N/A

>  <Target> (666)
FLT3,Axl 

>  <Form> (666)
free base

>  <CAS> (666)
1254053-43-4

>  <URL> (666)
http://www.selleckchem.com/products/gilteritinib-asp2215.html

$$$$
Chk2 Inhibitor II (BML-277).cdx
csChFnd80/05071909292D

 26 29  0  0  0  0  0  0  0  0999 V2000
    2.4249    2.1000    0.0000 C   0  0  0  0  0  0  0  0  0  0  0  0
    2.4249    0.7000    0.0000 C   0  0  0  0  0  0  0  0  0  0  0  0
    3.6373    0.0000    0.0000 C   0  0  0  0  0  0  0  0  0  0  0  0
    4.8497    0.7000    0.0000 C   0  0  0  0  0  0  0  0  0  0  0  0
    4.8497    2.1000    0.0000 C   0  0  0  0  0  0  0  0  0  0  0  0
    3.6373    2.8000    0.0000 C   0  0  0  0  0  0  0  0  0  0  0  0
    1.2124    2.8000    0.0000 C   0  0  0  0  0  0  0  0  0  0  0  0
    1.2124    4.2000    0.0000 O   0  0  0  0  0  0  0  0  0  0  0  0
    0.0000    2.1000    0.0000 N   0  0  0  0  0  0  0  0  0  0  0  0
    6.1812    0.2674    0.0000 N   0  0  0  0  0  0  0  0  0  0  0  0
    7.0041    1.4000    0.0000 C   0  0  0  0  0  0  0  0  0  0  0  0
    6.1812    2.5326    0.0000 N   0  0  0  0  0  0  0  0  0  0  0  0
    8.4041    1.4000    0.0000 C   0  0  0  0  0  0  0  0  0  0  0  0
    9.1041    0.1876    0.0000 C   0  0  0  0  0  0  0  0  0  0  0  0
   10.5041    0.1876    0.0000 C   0  0  0  0  0  0  0  0  0  0  0  0
   11.2041    1.4000    0.0000 C   0  0  0  0  0  0  0  0  0  0  0  0
   10.5041    2.6124    0.0000 C   0  0  0  0  0  0  0  0  0  0  0  0
    9.1041    2.6124    0.0000 C   0  0  0  0  0  0  0  0  0  0  0  0
   12.6041    1.4000    0.0000 O   0  0  0  0  0  0  0  0  0  0  0  0
   13.3041    2.6124    0.0000 C   0  0  0  0  0  0  0  0  0  0  0  0
   14.7041    2.6124    0.0000 C   0  0  0  0  0  0  0  0  0  0  0  0
   15.4041    3.8249    0.0000 C   0  0  0  0  0  0  0  0  0  0  0  0
   14.7041    5.0373    0.0000 C   0  0  0  0  0  0  0  0  0  0  0  0
   13.3041    5.0373    0.0000 C   0  0  0  0  0  0  0  0  0  0  0  0
   12.6041    3.8249    0.0000 C   0  0  0  0  0  0  0  0  0  0  0  0
   15.4041    6.2497    0.0000 Cl  0  0  0  0  0  0  0  0  0  0  0  0
  1  2  2  0  0  0  0
  2  3  1  0  0  0  0
  3  4  2  0  0  0  0
  4  5  1  0  0  0  0
  5  6  2  0  0  0  0
  6  1  1  0  0  0  0
  1  7  1  0  0  0  0
  7  8  2  0  0  0  0
  7  9  1  0  0  0  0
  4 10  1  0  0  0  0
 10 11  1  0  0  0  0
 11 12  2  0  0  0  0
 12  5  1  0  0  0  0
 11 13  1  0  0  0  0
 13 14  2  0  0  0  0
 14 15  1  0  0  0  0
 15 16  2  0  0  0  0
 16 17  1  0  0  0  0
 17 18  2  0  0  0  0
 18 13  1  0  0  0  0
 16 19  1  0  0  0  0
 19 20  1  0  0  0  0
 20 21  2  0  0  0  0
 21 22  1  0  0  0  0
 22 23  2  0  0  0  0
 23 24  1  0  0  0  0
 24 25  2  0  0  0  0
 25 20  1  0  0  0  0
 23 26  1  0  0  0  0
M  END
>  <Mol_ID> (667)
3457

>  <Formula> (667)
C20H14ClN3O2

>  <MolWeight> (667)
363.79706

>  <Cat> (667)
S8632

>  <Name> (667)
Chk2 Inhibitor II (BML-277)

>  <Synonyms> (667)
N/A

>  <Target> (667)
Chk2

>  <Form> (667)
free base

>  <CAS> (667)
516480-79-8

>  <URL> (667)
http://www.selleckchem.com/products/chk2-inhibitor-2-bml-277.html

$$$$
LY3214996.cdx
csChFnd80/05071909292D

 32 36  0  0  0  0  0  0  0  0999 V2000
    1.3152    2.3111    0.0000 N   0  0  0  0  0  0  0  0  0  0  0  0
    2.0108    1.1063    0.0000 C   0  0  0  0  0  0  0  0  0  0  0  0
    3.4125    1.1063    0.0000 C   0  0  0  0  0  0  0  0  0  0  0  0
    4.1219    2.3351    0.0000 C   0  0  0  0  0  0  0  0  0  0  0  0
    3.4083    3.5712    0.0000 N   0  0  0  0  0  0  0  0  0  0  0  0
    1.9757    3.5712    0.0000 C   0  0  0  0  0  0  0  0  0  0  0  0
    1.3008    4.7401    0.0000 N   0  0  0  0  0  0  0  0  0  0  0  0
    1.9750    5.9077    0.0000 C   0  0  0  0  0  0  0  0  0  0  0  0
    5.4796    2.3351    0.0000 C   0  0  0  0  0  0  0  0  0  0  0  0
    6.3218    1.2685    0.0000 C   0  0  0  0  0  0  0  0  0  0  0  0
    7.6292    1.7248    0.0000 C   0  0  0  0  0  0  0  0  0  0  0  0
    7.6292    3.1209    0.0000 C   0  0  0  0  0  0  0  0  0  0  0  0
    6.2785    3.5265    0.0000 S   0  0  0  0  0  0  0  0  0  0  0  0
    8.9796    1.3181    0.0000 C   0  0  0  0  0  0  0  0  0  0  0  0
    9.7816    2.4734    0.0000 N   0  0  0  0  0  0  0  0  0  0  0  0
    8.9371    3.5880    0.0000 C   0  0  0  0  0  0  0  0  0  0  0  0
    9.4341    0.0000    0.0000 O   0  0  0  0  0  0  0  0  0  0  0  0
   11.1757    2.4734    0.0000 C   0  0  0  0  0  0  0  0  0  0  0  0
   11.8778    3.6895    0.0000 C   0  0  0  0  0  0  0  0  0  0  0  0
   13.2672    3.6895    0.0000 N   0  0  0  0  0  0  0  0  0  0  0  0
    8.3542    4.8419    0.0000 C   0  0  0  0  0  0  0  0  0  0  0  0
   10.1446    4.2851    0.0000 C   0  0  0  0  0  0  0  0  0  0  0  0
   13.9577    2.4934    0.0000 C   0  0  0  0  0  0  0  0  0  0  0  0
   15.3655    2.4934    0.0000 C   0  0  0  0  0  0  0  0  0  0  0  0
   16.0683    3.7106    0.0000 O   0  0  0  0  0  0  0  0  0  0  0  0
   15.3674    4.9245    0.0000 C   0  0  0  0  0  0  0  0  0  0  0  0
   13.9671    4.9245    0.0000 C   0  0  0  0  0  0  0  0  0  0  0  0
    3.3170    6.0557    0.0000 C   0  0  0  0  0  0  0  0  0  0  0  0
    3.6203    7.4444    0.0000 C   0  0  0  0  0  0  0  0  0  0  0  0
    2.4078    8.1444    0.0000 N   0  0  0  0  0  0  0  0  0  0  0  0
    1.3634    7.2236    0.0000 N   0  0  0  0  0  0  0  0  0  0  0  0
    0.0000    7.5157    0.0000 C   0  0  0  0  0  0  0  0  0  0  0  0
  1  2  2  0  0  0  0
  2  3  1  0  0  0  0
  3  4  2  0  0  0  0
  4  5  1  0  0  0  0
  5  6  2  0  0  0  0
  6  1  1  0  0  0  0
  6  7  1  0  0  0  0
  7  8  1  0  0  0  0
  4  9  1  0  0  0  0
  9 10  2  0  0  0  0
 10 11  1  0  0  0  0
 11 12  2  0  0  0  0
 12 13  1  0  0  0  0
 13  9  1  0  0  0  0
 11 14  1  0  0  0  0
 14 15  1  0  0  0  0
 15 16  1  0  0  0  0
 16 12  1  0  0  0  0
 14 17  2  0  0  0  0
 15 18  1  0  0  0  0
 18 19  1  0  0  0  0
 19 20  1  0  0  0  0
 16 21  1  0  0  0  0
 16 22  1  0  0  0  0
 20 23  1  0  0  0  0
 23 24  1  0  0  0  0
 24 25  1  0  0  0  0
 25 26  1  0  0  0  0
 26 27  1  0  0  0  0
 27 20  1  0  0  0  0
  8 28  2  0  0  0  0
 28 29  1  0  0  0  0
 29 30  2  0  0  0  0
 30 31  1  0  0  0  0
 31  8  1  0  0  0  0
 31 32  1  0  0  0  0
M  END
>  <Mol_ID> (668)
3458

>  <Formula> (668)
C22H27N7O2S

>  <MolWeight> (668)
453.56048

>  <Cat> (668)
S8534

>  <Name> (668)
LY3214996

>  <Synonyms> (668)
N/A

>  <Target> (668)
ERK1,ERK2

>  <Form> (668)
free base

>  <CAS> (668)
1951483-29-6

>  <URL> (668)
http://www.selleckchem.com/products/ly3214996.html

$$$$
PKM2 inhibitor(compound 3k).cdx
csChFnd80/05071909292D

 23 25  0  0  0  0  0  0  0  0999 V2000
    0.0000    3.5000    0.0000 C   0  0  0  0  0  0  0  0  0  0  0  0
    0.0000    2.1000    0.0000 C   0  0  0  0  0  0  0  0  0  0  0  0
    1.2124    1.4000    0.0000 C   0  0  0  0  0  0  0  0  0  0  0  0
    2.4249    2.1000    0.0000 C   0  0  0  0  0  0  0  0  0  0  0  0
    2.4249    3.5000    0.0000 C   0  0  0  0  0  0  0  0  0  0  0  0
    1.2124    4.2000    0.0000 C   0  0  0  0  0  0  0  0  0  0  0  0
    3.6373    1.4000    0.0000 C   0  0  0  0  0  0  0  0  0  0  0  0
    4.8497    2.1000    0.0000 C   0  0  0  0  0  0  0  0  0  0  0  0
    4.8497    3.5000    0.0000 C   0  0  0  0  0  0  0  0  0  0  0  0
    3.6373    4.2000    0.0000 C   0  0  0  0  0  0  0  0  0  0  0  0
    3.6373    5.6000    0.0000 O   0  0  0  0  0  0  0  0  0  0  0  0
    6.0622    1.4000    0.0000 C   0  0  0  0  0  0  0  0  0  0  0  0
    3.6373    0.0000    0.0000 O   0  0  0  0  0  0  0  0  0  0  0  0
    6.0622    4.2000    0.0000 C   0  0  0  0  0  0  0  0  0  0  0  0
    7.2746    3.5000    0.0000 S   0  0  0  0  0  0  0  0  0  0  0  0
    8.4870    4.2000    0.0000 C   0  0  0  0  0  0  0  0  0  0  0  0
    9.6995    3.5000    0.0000 N   0  0  0  0  0  0  0  0  0  0  0  0
    8.4870    5.6000    0.0000 S   0  0  0  0  0  0  0  0  0  0  0  0
    9.6995    2.1000    0.0000 C   0  0  0  0  0  0  0  0  0  0  0  0
   10.9119    1.4000    0.0000 C   0  0  0  0  0  0  0  0  0  0  0  0
   12.1244    2.1000    0.0000 C   0  0  0  0  0  0  0  0  0  0  0  0
   12.1244    3.5000    0.0000 C   0  0  0  0  0  0  0  0  0  0  0  0
   10.9119    4.2000    0.0000 C   0  0  0  0  0  0  0  0  0  0  0  0
  1  2  2  0  0  0  0
  2  3  1  0  0  0  0
  3  4  2  0  0  0  0
  4  5  1  0  0  0  0
  5  6  2  0  0  0  0
  6  1  1  0  0  0  0
  4  7  1  0  0  0  0
  7  8  1  0  0  0  0
  8  9  2  0  0  0  0
  9 10  1  0  0  0  0
 10  5  1  0  0  0  0
 10 11  2  0  0  0  0
  8 12  1  0  0  0  0
  7 13  2  0  0  0  0
  9 14  1  0  0  0  0
 14 15  1  0  0  0  0
 15 16  1  0  0  0  0
 16 17  1  0  0  0  0
 16 18  2  0  0  0  0
 17 19  1  0  0  0  0
 19 20  1  0  0  0  0
 20 21  1  0  0  0  0
 21 22  1  0  0  0  0
 22 23  1  0  0  0  0
 23 17  1  0  0  0  0
M  END
>  <Mol_ID> (669)
3469

>  <Formula> (669)
C18H19NO2S2

>  <MolWeight> (669)
345.47896

>  <Cat> (669)
S8616

>  <Name> (669)
PKM2 inhibitor(compound 3k)

>  <Synonyms> (669)
N/A

>  <Target> (669)
PKM2

>  <Form> (669)
free base

>  <CAS> (669)
94164-88-2

>  <URL> (669)
http://www.selleckchem.com/products/pkm2-inhibitor-compound-3k.html

$$$$
FM-381.cdx
csChFnd80/05071909292D

 32 36  0  0  0  0  0  0  0  0999 V2000
    8.9819    2.0938    0.0000 C   0  0  0  0  0  0  0  0  0  0  0  0
    8.9890    0.6938    0.0000 C   0  0  0  0  0  0  0  0  0  0  0  0
   10.2050    0.0000    0.0000 N   0  0  0  0  0  0  0  0  0  0  0  0
   11.4139    0.7062    0.0000 C   0  0  0  0  0  0  0  0  0  0  0  0
   11.4067    2.1061    0.0000 C   0  0  0  0  0  0  0  0  0  0  0  0
   10.1908    2.8000    0.0000 C   0  0  0  0  0  0  0  0  0  0  0  0
    9.8927    4.1679    0.0000 N   0  0  0  0  0  0  0  0  0  0  0  0
    8.4966    4.3053    0.0000 C   0  0  0  0  0  0  0  0  0  0  0  0
    7.9367    3.0253    0.0000 N   0  0  0  0  0  0  0  0  0  0  0  0
   12.7475    0.2803    0.0000 N   0  0  0  0  0  0  0  0  0  0  0  0
   13.5647    1.4171    0.0000 C   0  0  0  0  0  0  0  0  0  0  0  0
   12.7360    2.5456    0.0000 C   0  0  0  0  0  0  0  0  0  0  0  0
   10.8242    5.2130    0.0000 C   0  0  0  0  0  0  0  0  0  0  0  0
    7.7966    5.5178    0.0000 C   0  0  0  0  0  0  0  0  0  0  0  0
    8.3564    6.7978    0.0000 C   0  0  0  0  0  0  0  0  0  0  0  0
    7.3112    7.7293    0.0000 C   0  0  0  0  0  0  0  0  0  0  0  0
    6.1024    7.0231    0.0000 C   0  0  0  0  0  0  0  0  0  0  0  0
    6.4004    5.6552    0.0000 O   0  0  0  0  0  0  0  0  0  0  0  0
   12.1951    4.9289    0.0000 C   0  0  0  0  0  0  0  0  0  0  0  0
   13.1265    5.9741    0.0000 C   0  0  0  0  0  0  0  0  0  0  0  0
   12.6871    7.3034    0.0000 C   0  0  0  0  0  0  0  0  0  0  0  0
   11.3162    7.5875    0.0000 C   0  0  0  0  0  0  0  0  0  0  0  0
   10.3848    6.5423    0.0000 C   0  0  0  0  0  0  0  0  0  0  0  0
    4.8205    7.5860    0.0000 C   0  0  0  0  0  0  0  0  0  0  0  0
    3.6921    6.7574    0.0000 C   0  0  0  0  0  0  0  0  0  0  0  0
    2.4103    7.3203    0.0000 C   0  0  0  0  0  0  0  0  0  0  0  0
    3.8455    5.3658    0.0000 C   0  0  0  0  0  0  0  0  0  0  0  0
    3.9990    3.9742    0.0000 N   0  0  0  0  0  0  0  0  0  0  0  0
    1.2818    6.4916    0.0000 N   0  0  0  0  0  0  0  0  0  0  0  0
    2.2568    8.7118    0.0000 O   0  0  0  0  0  0  0  0  0  0  0  0
    0.0000    7.0545    0.0000 C   0  0  0  0  0  0  0  0  0  0  0  0
    1.4353    5.1001    0.0000 C   0  0  0  0  0  0  0  0  0  0  0  0
  1  2  2  0  0  0  0
  2  3  1  0  0  0  0
  3  4  2  0  0  0  0
  4  5  1  0  0  0  0
  5  6  2  0  0  0  0
  6  1  1  0  0  0  0
  6  7  1  0  0  0  0
  7  8  1  0  0  0  0
  8  9  2  0  0  0  0
  9  1  1  0  0  0  0
  4 10  1  0  0  0  0
 10 11  1  0  0  0  0
 11 12  2  0  0  0  0
 12  5  1  0  0  0  0
  7 13  1  0  0  0  0
  8 14  1  0  0  0  0
 14 15  2  0  0  0  0
 15 16  1  0  0  0  0
 16 17  2  0  0  0  0
 17 18  1  0  0  0  0
 18 14  1  0  0  0  0
 13 19  1  0  0  0  0
 19 20  1  0  0  0  0
 20 21  1  0  0  0  0
 21 22  1  0  0  0  0
 22 23  1  0  0  0  0
 23 13  1  0  0  0  0
 17 24  1  0  0  0  0
 24 25  2  0  0  0  0
 25 26  1  0  0  0  0
 25 27  1  0  0  0  0
 26 29  1  0  0  0  0
 26 30  2  0  0  0  0
 29 31  1  0  0  0  0
 29 32  1  0  0  0  0
 27 28  3  0  0  0  0
M  END
>  <Mol_ID> (670)
3492

>  <Formula> (670)
C24H24N6O2

>  <MolWeight> (670)
428.48636

>  <Cat> (670)
S8541

>  <Name> (670)
FM-381

>  <Synonyms> (670)
N/A

>  <Target> (670)
JAK3

>  <Form> (670)
free base

>  <CAS> (670)
No

>  <URL> (670)
http://www.selleckchem.com/products/fm-381.html

$$$$
CA-4948.cdx
csChFnd80/05071909292D

 31 35  0  0  0  0  0  0  0  0999 V2000
    6.3544    2.1000    0.0000 C   0  0  0  0  0  0  0  0  0  0  0  0
    6.3544    0.7000    0.0000 C   0  0  0  0  0  0  0  0  0  0  0  0
    7.5668    0.0000    0.0000 N   0  0  0  0  0  0  0  0  0  0  0  0
    8.7793    0.7000    0.0000 C   0  0  0  0  0  0  0  0  0  0  0  0
    8.7793    2.1000    0.0000 C   0  0  0  0  0  0  0  0  0  0  0  0
    7.5668    2.8000    0.0000 C   0  0  0  0  0  0  0  0  0  0  0  0
    5.0229    2.5326    0.0000 O   0  0  0  0  0  0  0  0  0  0  0  0
    4.2000    1.4000    0.0000 C   0  0  0  0  0  0  0  0  0  0  0  0
    5.0229    0.2674    0.0000 N   0  0  0  0  0  0  0  0  0  0  0  0
    2.8000    1.4000    0.0000 N   0  0  0  0  0  0  0  0  0  0  0  0
    9.9917    2.8000    0.0000 N   0  0  0  0  0  0  0  0  0  0  0  0
    9.9917    4.2000    0.0000 C   0  0  0  0  0  0  0  0  0  0  0  0
   11.2041    4.9000    0.0000 C   0  0  0  0  0  0  0  0  0  0  0  0
    8.7793    4.9000    0.0000 O   0  0  0  0  0  0  0  0  0  0  0  0
   12.4166    4.2000    0.0000 N   0  0  0  0  0  0  0  0  0  0  0  0
   13.6290    4.9000    0.0000 C   0  0  0  0  0  0  0  0  0  0  0  0
   13.6290    6.3000    0.0000 C   0  0  0  0  0  0  0  0  0  0  0  0
   12.4166    7.0000    0.0000 C   0  0  0  0  0  0  0  0  0  0  0  0
   11.2041    6.3000    0.0000 C   0  0  0  0  0  0  0  0  0  0  0  0
   14.8414    4.2000    0.0000 C   0  0  0  0  0  0  0  0  0  0  0  0
   14.8414    2.8000    0.0000 C   0  0  0  0  0  0  0  0  0  0  0  0
   16.0539    2.1000    0.0000 C   0  0  0  0  0  0  0  0  0  0  0  0
   17.2663    2.8000    0.0000 C   0  0  0  0  0  0  0  0  0  0  0  0
   17.2663    4.2000    0.0000 N   0  0  0  0  0  0  0  0  0  0  0  0
   16.0539    4.9000    0.0000 C   0  0  0  0  0  0  0  0  0  0  0  0
   18.4787    2.1000    0.0000 N   0  0  0  0  0  0  0  0  0  0  0  0
    2.1000    2.6124    0.0000 C   0  0  0  0  0  0  0  0  0  0  0  0
    0.7000    2.6124    0.0000 C   0  0  0  0  0  0  0  0  0  0  0  0
    0.0000    1.4000    0.0000 O   0  0  0  0  0  0  0  0  0  0  0  0
    0.7000    0.1876    0.0000 C   0  0  0  0  0  0  0  0  0  0  0  0
    2.1000    0.1876    0.0000 C   0  0  0  0  0  0  0  0  0  0  0  0
  1  2  2  0  0  0  0
  2  3  1  0  0  0  0
  3  4  2  0  0  0  0
  4  5  1  0  0  0  0
  5  6  2  0  0  0  0
  6  1  1  0  0  0  0
  1  7  1  0  0  0  0
  7  8  1  0  0  0  0
  8  9  2  0  0  0  0
  9  2  1  0  0  0  0
  8 10  1  0  0  0  0
  5 11  1  0  0  0  0
 11 12  1  0  0  0  0
 12 13  1  0  0  0  0
 12 14  2  0  0  0  0
 13 15  2  0  0  0  0
 15 16  1  0  0  0  0
 16 17  2  0  0  0  0
 17 18  1  0  0  0  0
 18 19  2  0  0  0  0
 19 13  1  0  0  0  0
 16 20  1  0  0  0  0
 20 21  2  0  0  0  0
 21 22  1  0  0  0  0
 22 23  2  0  0  0  0
 23 24  1  0  0  0  0
 24 25  2  0  0  0  0
 25 20  1  0  0  0  0
 23 26  1  0  0  0  0
 10 27  1  0  0  0  0
 27 28  1  0  0  0  0
 28 29  1  0  0  0  0
 29 30  1  0  0  0  0
 30 31  1  0  0  0  0
 31 10  1  0  0  0  0
M  END
>  <Mol_ID> (671)
3493

>  <Formula> (671)
C21H19N7O3

>  <MolWeight> (671)
417.42066

>  <Cat> (671)
S8562

>  <Name> (671)
CA-4948

>  <Synonyms> (671)
N/A

>  <Target> (671)
IRAK4

>  <Form> (671)
free base

>  <CAS> (671)
1801343-74-7

>  <URL> (671)
http://www.selleckchem.com/products/ca-4948.html

$$$$
S3614 Lupeol.cdx
csChFnd80/05071909292D

 35 39  0  0  0  0  0  0  0  0999 V2000
    7.2715    4.0554    0.0000 C   0  0  2  0  0  0  0  0  0  0  0  0
    7.2715    5.4553    0.0000 C   0  0  1  0  0  0  0  0  0  0  0  0
    6.0668    3.3506    0.0000 C   0  0  1  0  0  0  0  0  0  0  0  0
    8.4763    3.3506    0.0000 C   0  0  0  0  0  0  0  0  0  0  0  0
    7.2571    2.6505    0.0000 C   0  0  0  0  0  0  0  0  0  0  0  0
    8.4763    6.1554    0.0000 C   0  0  2  0  0  0  0  0  0  0  0  0
    6.0668    6.1554    0.0000 C   0  0  0  0  0  0  0  0  0  0  0  0
    4.8523    4.0410    0.0000 C   0  0  2  0  0  0  0  0  0  0  0  0
    6.0808    1.9410    0.0000 C   0  0  0  0  0  0  0  0  0  0  0  0
    9.7001    4.0410    0.0000 C   0  0  0  0  0  0  0  0  0  0  0  0
    9.7001    5.4696    0.0000 C   0  0  1  0  0  0  0  0  0  0  0  0
    8.7619    7.5363    0.0000 C   0  0  1  0  0  0  0  0  0  0  0  0
    4.8523    5.4696    0.0000 C   0  0  0  0  0  0  0  0  0  0  0  0
    3.6285    3.3219    0.0000 C   0  0  2  0  0  0  0  0  0  0  0  0
    4.8810    1.2409    0.0000 C   0  0  0  0  0  0  0  0  0  0  0  0
   10.7334    6.4172    0.0000 C   0  0  0  0  0  0  0  0  0  0  0  0
   10.1571    7.6839    0.0000 C   0  0  0  0  0  0  0  0  0  0  0  0
    7.8334    8.5839    0.0000 C   0  0  0  0  0  0  0  0  0  0  0  0
    3.6477    1.9125    0.0000 C   0  0  1  0  0  0  0  0  0  0  0  0
    2.4236    4.0267    0.0000 C   0  0  0  0  0  0  0  0  0  0  0  0
    6.4715    8.2983    0.0000 C   0  0  0  0  0  0  0  0  0  0  0  0
    8.2762    9.9173    0.0000 C   0  0  0  0  0  0  0  0  0  0  0  0
    2.4380    1.2124    0.0000 C   0  0  0  0  0  0  0  0  0  0  0  0
    1.2048    3.3363    0.0000 C   0  0  0  0  0  0  0  0  0  0  0  0
    1.2190    1.8982    0.0000 C   0  0  2  0  0  0  0  0  0  0  0  0
    0.0000    1.1362    0.0000 O   0  0  0  0  0  0  0  0  0  0  0  0
    7.2856    6.8602    0.0000 H   0  0  0  0  0  0  0  0  0  0  0  0
    8.4904    4.7555    0.0000 H   0  0  0  0  0  0  0  0  0  0  0  0
    3.6179    4.7482    0.0000 C   0  0  0  0  0  0  0  0  0  0  0  0
    6.0576    4.7539    0.0000 C   0  0  0  0  0  0  0  0  0  0  0  0
    3.6409    0.5132    0.0000 H   0  0  0  0  0  0  0  0  0  0  0  0
    4.8435    2.6536    0.0000 H   0  0  0  0  0  0  0  0  0  0  0  0
   10.9140    4.7770    0.0000 C   0  0  0  0  0  0  0  0  0  0  0  0
    1.7380    0.0000    0.0000 C   0  0  0  0  0  0  0  0  0  0  0  0
    3.1380    0.0000    0.0000 C   0  0  0  0  0  0  0  0  0  0  0  0
  1  2  1  0  0  0  0
  1  3  1  0  0  0  0
  1  4  1  0  0  0  0
  1  5  1  6  0  0  0
  2 27  1  1  0  0  0
  2  6  1  0  0  0  0
  2  7  1  0  0  0  0
  3  8  1  0  0  0  0
  3  9  1  0  0  0  0
  3 30  1  1  0  0  0
  4 10  1  0  0  0  0
  6 11  1  0  0  0  0
  6 12  1  0  0  0  0
  6 28  1  6  0  0  0
  7 13  1  0  0  0  0
  8 14  1  0  0  0  0
  8 13  1  0  0  0  0
  8 32  1  6  0  0  0
  9 15  1  0  0  0  0
 10 11  1  0  0  0  0
 11 16  1  0  0  0  0
 11 33  1  1  0  0  0
 12 17  1  0  0  0  0
 12 18  1  6  0  0  0
 14 19  1  0  0  0  0
 14 20  1  0  0  0  0
 14 29  1  1  0  0  0
 15 19  1  0  0  0  0
 16 17  1  0  0  0  0
 18 21  1  0  0  0  0
 18 22  2  0  0  0  0
 19 23  1  0  0  0  0
 19 31  1  6  0  0  0
 20 24  1  0  0  0  0
 23 25  1  0  0  0  0
 24 25  1  0  0  0  0
 25 26  1  1  0  0  0
 23 34  1  0  0  0  0
 23 35  1  0  0  0  0
M  END
>  <Mol_ID> (672)
3496

>  <Formula> (672)
C30H50O

>  <MolWeight> (672)
426.7174

>  <Cat> (672)
S3614

>  <Name> (672)
Lupeol

>  <Synonyms> (672)
(3,13)-Lup-20(29)-en-3-ol, Clerodol, Monogynol B, Fagarasterol, Farganasterol

>  <Target> (672)
Others

>  <Form> (672)
free base

>  <CAS> (672)
545-47-1

>  <URL> (672)
http://www.selleckchem.com/products/lupeol.html

$$$$
BAY 1895344.cdx
csChFnd80/05071909292D

 29 32  0  0  0  0  0  0  0  0999 V2000
    4.8497    4.7261    0.0000 C   0  0  0  0  0  0  0  0  0  0  0  0
    4.8497    6.1261    0.0000 C   0  0  0  0  0  0  0  0  0  0  0  0
    3.6373    6.8261    0.0000 C   0  0  0  0  0  0  0  0  0  0  0  0
    2.4249    6.1261    0.0000 C   0  0  0  0  0  0  0  0  0  0  0  0
    2.4249    4.7261    0.0000 C   0  0  0  0  0  0  0  0  0  0  0  0
    3.6373    4.0261    0.0000 N   0  0  0  0  0  0  0  0  0  0  0  0
    1.2124    6.8261    0.0000 C   0  0  0  0  0  0  0  0  0  0  0  0
    0.0000    6.1261    0.0000 C   0  0  0  0  0  0  0  0  0  0  0  0
    0.0000    4.7261    0.0000 N   0  0  0  0  0  0  0  0  0  0  0  0
    1.2124    4.0261    0.0000 C   0  0  0  0  0  0  0  0  0  0  0  0
    1.2124    2.6261    0.0000 C   0  0  0  0  0  0  0  0  0  0  0  0
    0.0798    1.8032    0.0000 N   0  0  0  0  0  0  0  0  0  0  0  0
    0.5124    0.4717    0.0000 N   0  0  0  0  0  0  0  0  0  0  0  0
    1.9124    0.4717    0.0000 C   0  0  0  0  0  0  0  0  0  0  0  0
    2.3451    1.8032    0.0000 C   0  0  0  0  0  0  0  0  0  0  0  0
    3.6373    8.2261    0.0000 C   0  0  0  0  0  0  0  0  0  0  0  0
    6.0622    4.0261    0.0000 N   0  0  0  0  0  0  0  0  0  0  0  0
    4.7699    9.0490    0.0000 C   0  0  0  0  0  0  0  0  0  0  0  0
    4.3373   10.3805    0.0000 C   0  0  0  0  0  0  0  0  0  0  0  0
    2.9373   10.3805    0.0000 N   0  0  0  0  0  0  0  0  0  0  0  0
    2.5047    9.0490    0.0000 N   0  0  0  0  0  0  0  0  0  0  0  0
    6.0622    2.6261    0.0000 C   0  0  1  0  0  0  0  0  0  0  0  0
    7.2746    1.9261    0.0000 C   0  0  0  0  0  0  0  0  0  0  0  0
    8.4870    2.6261    0.0000 O   0  0  0  0  0  0  0  0  0  0  0  0
    8.4870    4.0261    0.0000 C   0  0  0  0  0  0  0  0  0  0  0  0
    7.2746    4.7261    0.0000 C   0  0  0  0  0  0  0  0  0  0  0  0
    4.8497    1.9261    0.0000 C   0  0  0  0  0  0  0  0  0  0  0  0
    1.1732    8.6164    0.0000 C   0  0  0  0  0  0  0  0  0  0  0  0
    4.1195    0.0000    0.0000 Cl  0  0  0  0  0  0  0  0  0  0  0  0
  1  2  2  0  0  0  0
  2  3  1  0  0  0  0
  3  4  2  0  0  0  0
  4  5  1  0  0  0  0
  5  6  2  0  0  0  0
  6  1  1  0  0  0  0
  4  7  1  0  0  0  0
  7  8  2  0  0  0  0
  8  9  1  0  0  0  0
  9 10  2  0  0  0  0
 10  5  1  0  0  0  0
 10 11  1  0  0  0  0
 11 12  1  0  0  0  0
 12 13  1  0  0  0  0
 13 14  2  0  0  0  0
 14 15  1  0  0  0  0
 15 11  2  0  0  0  0
  3 16  1  0  0  0  0
  1 17  1  0  0  0  0
 16 18  2  0  0  0  0
 18 19  1  0  0  0  0
 19 20  2  0  0  0  0
 20 21  1  0  0  0  0
 21 16  1  0  0  0  0
 17 22  1  0  0  0  0
 22 23  1  0  0  0  0
 23 24  1  0  0  0  0
 24 25  1  0  0  0  0
 25 26  1  0  0  0  0
 26 17  1  0  0  0  0
 22 27  1  1  0  0  0
 21 28  1  0  0  0  0
M  END
>  <Mol_ID> (673)
3506

>  <Formula> (673)
C20H22ClN7O

>  <MolWeight> (673)
411.88798

>  <Cat> (673)
S8666

>  <Name> (673)
BAY 1895344

>  <Synonyms> (673)
N/A

>  <Target> (673)
ATR

>  <Form> (673)
hydrochloride

>  <CAS> (673)
1876467-74-1(free base)

>  <URL> (673)
http://www.selleckchem.com/products/bay-1895344.html

$$$$
HMPL-504(AZD6094, Volitinib).cdx
csChFnd80/05071909292D

 26 30  0  0  0  0  0  0  0  0999 V2000
    3.4240    2.1000    0.0000 C   0  0  0  0  0  0  0  0  0  0  0  0
    3.4240    0.7000    0.0000 C   0  0  0  0  0  0  0  0  0  0  0  0
    4.6364    0.0000    0.0000 N   0  0  0  0  0  0  0  0  0  0  0  0
    5.8488    0.7000    0.0000 C   0  0  0  0  0  0  0  0  0  0  0  0
    5.8488    2.1000    0.0000 C   0  0  0  0  0  0  0  0  0  0  0  0
    4.6364    2.8000    0.0000 N   0  0  0  0  0  0  0  0  0  0  0  0
    7.1803    0.2674    0.0000 N   0  0  0  0  0  0  0  0  0  0  0  0
    8.0032    1.4000    0.0000 N   0  0  0  0  0  0  0  0  0  0  0  0
    7.1803    2.5326    0.0000 N   0  0  0  0  0  0  0  0  0  0  0  0
    2.2157    2.7976    0.0000 C   0  0  0  0  0  0  0  0  0  0  0  0
    7.6114    3.8595    0.0000 C   0  0  1  0  0  0  0  0  0  0  0  0
    6.6249    4.8460    0.0000 C   0  0  0  0  0  0  0  0  0  0  0  0
    8.9761    4.1495    0.0000 C   0  0  0  0  0  0  0  0  0  0  0  0
    9.9129    3.1091    0.0000 C   0  0  0  0  0  0  0  0  0  0  0  0
   11.2823    3.4002    0.0000 C   0  0  0  0  0  0  0  0  0  0  0  0
   11.7149    4.7317    0.0000 C   0  0  0  0  0  0  0  0  0  0  0  0
   10.7781    5.7721    0.0000 N   0  0  0  0  0  0  0  0  0  0  0  0
    9.4087    5.4810    0.0000 C   0  0  0  0  0  0  0  0  0  0  0  0
   12.9939    5.3011    0.0000 N   0  0  0  0  0  0  0  0  0  0  0  0
   12.8475    6.6935    0.0000 C   0  0  0  0  0  0  0  0  0  0  0  0
   11.4781    6.9845    0.0000 C   0  0  0  0  0  0  0  0  0  0  0  0
    2.0694    4.1899    0.0000 C   0  0  0  0  0  0  0  0  0  0  0  0
    0.7000    4.4810    0.0000 N   0  0  0  0  0  0  0  0  0  0  0  0
    0.0000    3.2685    0.0000 N   0  0  0  0  0  0  0  0  0  0  0  0
    0.9368    2.2281    0.0000 C   0  0  0  0  0  0  0  0  0  0  0  0
    0.1325    5.7555    0.0000 C   0  0  0  0  0  0  0  0  0  0  0  0
  1  2  2  0  0  0  0
  2  3  1  0  0  0  0
  3  4  2  0  0  0  0
  4  5  1  0  0  0  0
  5  6  2  0  0  0  0
  6  1  1  0  0  0  0
  4  7  1  0  0  0  0
  7  8  2  0  0  0  0
  8  9  1  0  0  0  0
  9  5  1  0  0  0  0
  1 10  1  0  0  0  0
  9 11  1  0  0  0  0
 11 12  1  1  0  0  0
 11 13  1  0  0  0  0
 13 14  1  0  0  0  0
 14 15  2  0  0  0  0
 15 16  1  0  0  0  0
 16 17  1  0  0  0  0
 17 18  1  0  0  0  0
 18 13  2  0  0  0  0
 16 19  2  0  0  0  0
 19 20  1  0  0  0  0
 20 21  2  0  0  0  0
 21 17  1  0  0  0  0
 10 22  2  0  0  0  0
 22 23  1  0  0  0  0
 23 24  1  0  0  0  0
 24 25  2  0  0  0  0
 25 10  1  0  0  0  0
 23 26  1  0  0  0  0
M  END
>  <Mol_ID> (674)
3540

>  <Formula> (674)
C17H15N9

>  <MolWeight> (674)
345.3613

>  <Cat> (674)
S7674

>  <Name> (674)
Savolitinib(AZD6094, HMPL-504)

>  <Synonyms> (674)
Volitinib

>  <Target> (674)
MET

>  <Form> (674)
free base

>  <CAS> (674)
1313725-88-0

>  <URL> (674)
http://www.selleckchem.com/products/hmpl-504-azd6094-volitinib.html

$$$$
S3813 Bakuchiol.cdx
csChFnd80/05071909292D

 19 19  0  0  0  0  0  0  0  0999 V2000
    7.2746    2.8000    0.0000 C   0  0  1  0  0  0  0  0  0  0  0  0
    6.0622    2.1000    0.0000 C   0  0  0  0  0  0  0  0  0  0  0  0
    8.4795    2.0870    0.0000 C   0  0  0  0  0  0  0  0  0  0  0  0
    4.8497    2.8000    0.0000 C   0  0  0  0  0  0  0  0  0  0  0  0
    9.6993    2.7739    0.0000 C   0  0  0  0  0  0  0  0  0  0  0  0
    3.6373    2.1000    0.0000 C   0  0  0  0  0  0  0  0  0  0  0  0
   10.9042    2.0610    0.0000 C   0  0  0  0  0  0  0  0  0  0  0  0
    3.6373    0.7000    0.0000 C   0  0  0  0  0  0  0  0  0  0  0  0
    2.4249    2.8000    0.0000 C   0  0  0  0  0  0  0  0  0  0  0  0
   12.1241    2.7479    0.0000 C   0  0  0  0  0  0  0  0  0  0  0  0
    2.4249    0.0000    0.0000 C   0  0  0  0  0  0  0  0  0  0  0  0
    1.2124    2.1000    0.0000 C   0  0  0  0  0  0  0  0  0  0  0  0
   12.1391    4.1478    0.0000 C   0  0  0  0  0  0  0  0  0  0  0  0
   13.3289    2.0349    0.0000 C   0  0  0  0  0  0  0  0  0  0  0  0
    1.2124    0.7000    0.0000 C   0  0  0  0  0  0  0  0  0  0  0  0
    0.0000    0.0000    0.0000 O   0  0  0  0  0  0  0  0  0  0  0  0
    7.2821    4.2000    0.0000 C   0  0  0  0  0  0  0  0  0  0  0  0
    7.2746    1.4000    0.0000 C   0  0  0  0  0  0  0  0  0  0  0  0
    8.4870    0.7000    0.0000 C   0  0  0  0  0  0  0  0  0  0  0  0
  1  2  1  0  0  0  0
  1  3  1  0  0  0  0
  2  4  2  0  0  0  0
  3  5  1  0  0  0  0
  4  6  1  0  0  0  0
  5  7  1  0  0  0  0
  6  8  2  0  0  0  0
  6  9  1  0  0  0  0
  7 10  2  0  0  0  0
  8 11  1  0  0  0  0
  9 12  2  0  0  0  0
 10 13  1  0  0  0  0
 10 14  1  0  0  0  0
 11 15  2  0  0  0  0
 12 15  1  0  0  0  0
 15 16  1  0  0  0  0
  1 17  1  1  0  0  0
  1 18  1  0  0  0  0
 18 19  2  0  0  0  0
M  END
>  <Mol_ID> (675)
3542

>  <Formula> (675)
C18H24O

>  <MolWeight> (675)
256.38256

>  <Cat> (675)
S3813

>  <Name> (675)
Bakuchiol

>  <Synonyms> (675)
(S)-(+)-Bakuchiol

>  <Target> (675)
Immunology & Inflammation related

>  <Form> (675)
free base

>  <CAS> (675)
10309-37-2

>  <URL> (675)
http://www.selleckchem.com/products/bakuchiol.html

$$$$
H3B-6527.cdx
csChFnd80/05071909292D

 43 46  0  0  0  0  0  0  0  0999 V2000
    6.0622    8.4000    0.0000 C   0  0  0  0  0  0  0  0  0  0  0  0
    6.0622    7.0000    0.0000 C   0  0  0  0  0  0  0  0  0  0  0  0
    7.2746    6.3000    0.0000 C   0  0  0  0  0  0  0  0  0  0  0  0
    8.4870    7.0000    0.0000 C   0  0  0  0  0  0  0  0  0  0  0  0
    8.4870    8.4000    0.0000 C   0  0  0  0  0  0  0  0  0  0  0  0
    7.2746    9.1000    0.0000 C   0  0  0  0  0  0  0  0  0  0  0  0
    4.8497    6.3000    0.0000 N   0  0  0  0  0  0  0  0  0  0  0  0
    7.2746   10.5000    0.0000 N   0  0  0  0  0  0  0  0  0  0  0  0
    9.6995    9.1000    0.0000 N   0  0  0  0  0  0  0  0  0  0  0  0
    6.0622   11.2000    0.0000 C   0  0  0  0  0  0  0  0  0  0  0  0
    6.0622   12.6000    0.0000 C   0  0  0  0  0  0  0  0  0  0  0  0
    4.8497   10.5000    0.0000 O   0  0  0  0  0  0  0  0  0  0  0  0
    4.8497   13.3000    0.0000 C   0  0  0  0  0  0  0  0  0  0  0  0
    3.6373    7.0000    0.0000 C   0  0  0  0  0  0  0  0  0  0  0  0
    2.4249    6.3000    0.0000 C   0  0  0  0  0  0  0  0  0  0  0  0
    2.4249    4.9000    0.0000 N   0  0  0  0  0  0  0  0  0  0  0  0
    3.6373    4.2000    0.0000 C   0  0  0  0  0  0  0  0  0  0  0  0
    4.8497    4.9000    0.0000 C   0  0  0  0  0  0  0  0  0  0  0  0
    1.2124    4.2000    0.0000 C   0  0  0  0  0  0  0  0  0  0  0  0
    0.0000    4.9000    0.0000 C   0  0  0  0  0  0  0  0  0  0  0  0
   10.9119    8.4000    0.0000 C   0  0  0  0  0  0  0  0  0  0  0  0
   10.9119    7.0000    0.0000 C   0  0  0  0  0  0  0  0  0  0  0  0
   12.1244    6.3000    0.0000 C   0  0  0  0  0  0  0  0  0  0  0  0
   13.3368    7.0000    0.0000 N   0  0  0  0  0  0  0  0  0  0  0  0
   13.3368    8.4000    0.0000 C   0  0  0  0  0  0  0  0  0  0  0  0
   12.1244    9.1000    0.0000 N   0  0  0  0  0  0  0  0  0  0  0  0
   12.1244    4.9000    0.0000 N   0  0  0  0  0  0  0  0  0  0  0  0
   10.9119    4.2000    0.0000 C   0  0  0  0  0  0  0  0  0  0  0  0
   13.3368    4.2000    0.0000 C   0  0  0  0  0  0  0  0  0  0  0  0
   14.5492    4.9000    0.0000 N   0  0  0  0  0  0  0  0  0  0  0  0
   13.3368    2.8000    0.0000 O   0  0  0  0  0  0  0  0  0  0  0  0
   15.7617    4.2000    0.0000 C   0  0  0  0  0  0  0  0  0  0  0  0
   15.7617    2.8000    0.0000 C   0  0  0  0  0  0  0  0  0  0  0  0
   16.9741    2.1000    0.0000 C   0  0  0  0  0  0  0  0  0  0  0  0
   18.1865    2.8000    0.0000 C   0  0  0  0  0  0  0  0  0  0  0  0
   18.1865    4.2000    0.0000 C   0  0  0  0  0  0  0  0  0  0  0  0
   16.9741    4.9000    0.0000 C   0  0  0  0  0  0  0  0  0  0  0  0
   16.9741    6.3000    0.0000 Cl  0  0  0  0  0  0  0  0  0  0  0  0
   14.5492    2.1000    0.0000 Cl  0  0  0  0  0  0  0  0  0  0  0  0
   19.3990    4.9000    0.0000 O   0  0  0  0  0  0  0  0  0  0  0  0
   16.9741    0.7000    0.0000 O   0  0  0  0  0  0  0  0  0  0  0  0
   18.1865    0.0000    0.0000 C   0  0  0  0  0  0  0  0  0  0  0  0
   20.6114    4.2000    0.0000 C   0  0  0  0  0  0  0  0  0  0  0  0
  1  2  2  0  0  0  0
  2  3  1  0  0  0  0
  3  4  2  0  0  0  0
  4  5  1  0  0  0  0
  5  6  2  0  0  0  0
  6  1  1  0  0  0  0
  2  7  1  0  0  0  0
  6  8  1  0  0  0  0
  5  9  1  0  0  0  0
  8 10  1  0  0  0  0
 10 11  1  0  0  0  0
 10 12  2  0  0  0  0
 11 13  2  0  0  0  0
  7 14  1  0  0  0  0
 14 15  1  0  0  0  0
 15 16  1  0  0  0  0
 16 17  1  0  0  0  0
 17 18  1  0  0  0  0
 18  7  1  0  0  0  0
 16 19  1  0  0  0  0
 19 20  1  0  0  0  0
  9 21  1  0  0  0  0
 21 22  2  0  0  0  0
 22 23  1  0  0  0  0
 23 24  2  0  0  0  0
 24 25  1  0  0  0  0
 25 26  2  0  0  0  0
 26 21  1  0  0  0  0
 23 27  1  0  0  0  0
 27 28  1  0  0  0  0
 27 29  1  0  0  0  0
 29 30  1  0  0  0  0
 29 31  2  0  0  0  0
 30 32  1  0  0  0  0
 32 33  2  0  0  0  0
 33 34  1  0  0  0  0
 34 35  2  0  0  0  0
 35 36  1  0  0  0  0
 36 37  2  0  0  0  0
 37 32  1  0  0  0  0
 37 38  1  0  0  0  0
 33 39  1  0  0  0  0
 36 40  1  0  0  0  0
 34 41  1  0  0  0  0
 41 42  1  0  0  0  0
 40 43  1  0  0  0  0
M  END
>  <Mol_ID> (676)
3549

>  <Formula> (676)
C29H34Cl2N8O4

>  <MolWeight> (676)
629.53746

>  <Cat> (676)
S8675

>  <Name> (676)
H3B-6527

>  <Synonyms> (676)
N/A

>  <Target> (676)
FGFR4

>  <Form> (676)
free base

>  <CAS> (676)
1702259-66-2

>  <URL> (676)
http://www.selleckchem.com/products/h3b-6527.html

$$$$
Takinib.cdx
csChFnd80/05071909292D

 24 26  0  0  0  0  0  0  0  0999 V2000
    0.0000    5.5360    0.0000 C   0  0  0  0  0  0  0  0  0  0  0  0
    0.0000    4.1360    0.0000 C   0  0  0  0  0  0  0  0  0  0  0  0
    1.2124    3.4360    0.0000 C   0  0  0  0  0  0  0  0  0  0  0  0
    2.4249    4.1360    0.0000 C   0  0  0  0  0  0  0  0  0  0  0  0
    2.4249    5.5360    0.0000 C   0  0  0  0  0  0  0  0  0  0  0  0
    1.2124    6.2360    0.0000 C   0  0  0  0  0  0  0  0  0  0  0  0
    3.7563    3.7034    0.0000 N   0  0  0  0  0  0  0  0  0  0  0  0
    4.5792    4.8360    0.0000 C   0  0  0  0  0  0  0  0  0  0  0  0
    3.7563    5.9686    0.0000 N   0  0  0  0  0  0  0  0  0  0  0  0
    5.9792    4.8360    0.0000 N   0  0  0  0  0  0  0  0  0  0  0  0
    6.6792    6.0484    0.0000 C   0  0  0  0  0  0  0  0  0  0  0  0
    8.0792    6.0484    0.0000 C   0  0  0  0  0  0  0  0  0  0  0  0
    8.7792    4.8360    0.0000 C   0  0  0  0  0  0  0  0  0  0  0  0
   10.1792    4.8360    0.0000 C   0  0  0  0  0  0  0  0  0  0  0  0
   10.8792    6.0484    0.0000 C   0  0  0  0  0  0  0  0  0  0  0  0
   10.1792    7.2609    0.0000 C   0  0  0  0  0  0  0  0  0  0  0  0
    8.7792    7.2609    0.0000 C   0  0  0  0  0  0  0  0  0  0  0  0
   10.8792    3.6235    0.0000 C   0  0  0  0  0  0  0  0  0  0  0  0
   10.1792    2.4111    0.0000 N   0  0  0  0  0  0  0  0  0  0  0  0
    4.1890    2.3719    0.0000 C   0  0  0  0  0  0  0  0  0  0  0  0
    3.2522    1.3315    0.0000 C   0  0  0  0  0  0  0  0  0  0  0  0
    3.6848    0.0000    0.0000 C   0  0  0  0  0  0  0  0  0  0  0  0
    5.9792    7.2609    0.0000 O   0  0  0  0  0  0  0  0  0  0  0  0
   12.2792    3.6235    0.0000 O   0  0  0  0  0  0  0  0  0  0  0  0
  1  2  2  0  0  0  0
  2  3  1  0  0  0  0
  3  4  2  0  0  0  0
  4  5  1  0  0  0  0
  5  6  2  0  0  0  0
  6  1  1  0  0  0  0
  4  7  1  0  0  0  0
  7  8  1  0  0  0  0
  8  9  2  0  0  0  0
  9  5  1  0  0  0  0
  8 10  1  0  0  0  0
 10 11  1  0  0  0  0
 11 12  1  0  0  0  0
 12 13  2  0  0  0  0
 13 14  1  0  0  0  0
 14 15  2  0  0  0  0
 15 16  1  0  0  0  0
 16 17  2  0  0  0  0
 17 12  1  0  0  0  0
 14 18  1  0  0  0  0
 18 19  1  0  0  0  0
  7 20  1  0  0  0  0
 20 21  1  0  0  0  0
 21 22  1  0  0  0  0
 11 23  2  0  0  0  0
 18 24  2  0  0  0  0
M  END
>  <Mol_ID> (677)
3566

>  <Formula> (677)
C18H18N4O2

>  <MolWeight> (677)
322.36112

>  <Cat> (677)
S8663

>  <Name> (677)
Takinib

>  <Synonyms> (677)
EDHS-206

>  <Target> (677)
TAK1,IRAK4,IRAK1

>  <Form> (677)
free base

>  <CAS> (677)
1111556-37-6

>  <URL> (677)
http://www.selleckchem.com/products/takinib.html

$$$$
IPI-3063.cdx
csChFnd80/05071909292D

 34 37  0  0  0  0  0  0  0  0999 V2000
    0.0000    7.7000    0.0000 C   0  0  0  0  0  0  0  0  0  0  0  0
    0.0000    6.3000    0.0000 C   0  0  0  0  0  0  0  0  0  0  0  0
    1.2124    5.6000    0.0000 C   0  0  0  0  0  0  0  0  0  0  0  0
    2.4249    6.3000    0.0000 C   0  0  0  0  0  0  0  0  0  0  0  0
    2.4249    7.7000    0.0000 C   0  0  0  0  0  0  0  0  0  0  0  0
    1.2124    8.4000    0.0000 C   0  0  0  0  0  0  0  0  0  0  0  0
    1.2124    9.8000    0.0000 C   0  0  0  0  0  0  0  0  0  0  0  0
    3.6373    5.6000    0.0000 C   0  0  0  0  0  0  0  0  0  0  0  0
    4.8497    6.3000    0.0000 C   0  0  0  0  0  0  0  0  0  0  0  0
    4.8497    7.7000    0.0000 N   0  0  0  0  0  0  0  0  0  0  0  0
    3.6373    8.4000    0.0000 C   0  0  0  0  0  0  0  0  0  0  0  0
    2.4249   10.5000    0.0000 C   0  0  0  0  0  0  0  0  0  0  0  0
    2.4249   11.9000    0.0000 N   0  0  0  0  0  0  0  0  0  0  0  0
    1.2124   12.6000    0.0000 C   0  0  0  0  0  0  0  0  0  0  0  0
    0.0000   11.9000    0.0000 C   0  0  0  0  0  0  0  0  0  0  0  0
    0.0000   10.5000    0.0000 C   0  0  0  0  0  0  0  0  0  0  0  0
    1.2124   14.0000    0.0000 O   0  0  0  0  0  0  0  0  0  0  0  0
    3.6373   12.6000    0.0000 C   0  0  0  0  0  0  0  0  0  0  0  0
    6.0622    5.6000    0.0000 C   0  0  2  0  0  0  0  0  0  0  0  0
    3.6373    9.8000    0.0000 O   0  0  0  0  0  0  0  0  0  0  0  0
    6.0622    8.4000    0.0000 C   0  0  0  0  0  0  0  0  0  0  0  0
    7.2746    7.7000    0.0000 C   0  0  0  0  0  0  0  0  0  0  0  0
    6.0622    9.8000    0.0000 C   0  0  0  0  0  0  0  0  0  0  0  0
    7.2746    6.3000    0.0000 C   0  0  0  0  0  0  0  0  0  0  0  0
    6.0622    4.2000    0.0000 N   0  0  0  0  0  0  0  0  0  0  0  0
    7.2746    3.5000    0.0000 C   0  0  0  0  0  0  0  0  0  0  0  0
    7.2746    2.1000    0.0000 C   0  0  0  0  0  0  0  0  0  0  0  0
    8.4870    1.4000    0.0000 C   0  0  0  0  0  0  0  0  0  0  0  0
    9.6995    2.1000    0.0000 N   0  0  0  0  0  0  0  0  0  0  0  0
    9.6995    3.5000    0.0000 C   0  0  0  0  0  0  0  0  0  0  0  0
    8.4870    4.2000    0.0000 N   0  0  0  0  0  0  0  0  0  0  0  0
    6.0622    1.4000    0.0000 C   0  0  0  0  0  0  0  0  0  0  0  0
    4.8497    0.7000    0.0000 N   0  0  0  0  0  0  0  0  0  0  0  0
    8.4870    0.0000    0.0000 N   0  0  0  0  0  0  0  0  0  0  0  0
  1  2  2  0  0  0  0
  2  3  1  0  0  0  0
  3  4  2  0  0  0  0
  4  5  1  0  0  0  0
  5  6  2  0  0  0  0
  6  1  1  0  0  0  0
  6  7  1  0  0  0  0
  4  8  1  0  0  0  0
  8  9  2  0  0  0  0
  9 10  1  0  0  0  0
 10 11  1  0  0  0  0
 11  5  1  0  0  0  0
  7 12  2  0  0  0  0
 12 13  1  0  0  0  0
 13 14  1  0  0  0  0
 14 15  1  0  0  0  0
 15 16  2  0  0  0  0
 16  7  1  0  0  0  0
 14 17  2  0  0  0  0
 13 18  1  0  0  0  0
  9 19  1  0  0  0  0
 11 20  2  0  0  0  0
 10 21  1  0  0  0  0
 21 22  1  0  0  0  0
 21 23  1  0  0  0  0
 19 24  1  6  0  0  0
 19 25  1  0  0  0  0
 25 26  1  0  0  0  0
 26 27  2  0  0  0  0
 27 28  1  0  0  0  0
 28 29  2  0  0  0  0
 29 30  1  0  0  0  0
 30 31  2  0  0  0  0
 31 26  1  0  0  0  0
 27 32  1  0  0  0  0
 28 34  1  0  0  0  0
 32 33  3  0  0  0  0
M  END
>  <Mol_ID> (678)
3583

>  <Formula> (678)
C25H25N7O2

>  <MolWeight> (678)
455.5117

>  <Cat> (678)
S7335

>  <Name> (678)
IPI-3063

>  <Synonyms> (678)
N/A

>  <Target> (678)
p110

>  <Form> (678)
free base

>  <CAS> (678)
1425043-73-7

>  <URL> (678)
http://www.selleckchem.com/products/ipi-3063.html

$$$$
PF-06651600.cdx
csChFnd80/05071909292D

 21 23  0  0  0  0  0  0  0  0999 V2000
    4.8497    2.1000    0.0000 N   0  0  0  0  0  0  0  0  0  0  0  0
    4.8497    0.7000    0.0000 C   0  0  0  0  0  0  0  0  0  0  0  0
    6.0622    0.0000    0.0000 N   0  0  0  0  0  0  0  0  0  0  0  0
    7.2746    0.7000    0.0000 C   0  0  0  0  0  0  0  0  0  0  0  0
    7.2746    2.1000    0.0000 C   0  0  0  0  0  0  0  0  0  0  0  0
    6.0622    2.8000    0.0000 C   0  0  0  0  0  0  0  0  0  0  0  0
    8.6061    0.2674    0.0000 N   0  0  0  0  0  0  0  0  0  0  0  0
    9.4290    1.4000    0.0000 C   0  0  0  0  0  0  0  0  0  0  0  0
    8.6061    2.5326    0.0000 C   0  0  0  0  0  0  0  0  0  0  0  0
    6.0622    4.2000    0.0000 N   0  0  0  0  0  0  0  0  0  0  0  0
    4.8497    4.9000    0.0000 C   0  0  2  0  0  0  0  0  0  0  0  0
    4.8497    6.3000    0.0000 C   0  0  0  0  0  0  0  0  0  0  0  0
    3.6373    7.0000    0.0000 C   0  0  0  0  0  0  0  0  0  0  0  0
    2.4249    6.3000    0.0000 C   0  0  1  0  0  0  0  0  0  0  0  0
    2.4249    4.9000    0.0000 N   0  0  0  0  0  0  0  0  0  0  0  0
    3.6373    4.2000    0.0000 C   0  0  0  0  0  0  0  0  0  0  0  0
    1.2124    7.0000    0.0000 C   0  0  0  0  0  0  0  0  0  0  0  0
    1.2124    4.2000    0.0000 C   0  0  0  0  0  0  0  0  0  0  0  0
    1.2124    2.8000    0.0000 O   0  0  0  0  0  0  0  0  0  0  0  0
    0.0000    4.9000    0.0000 C   0  0  0  0  0  0  0  0  0  0  0  0
    0.0000    6.3000    0.0000 C   0  0  0  0  0  0  0  0  0  0  0  0
  1  2  2  0  0  0  0
  2  3  1  0  0  0  0
  3  4  2  0  0  0  0
  4  5  1  0  0  0  0
  5  6  2  0  0  0  0
  6  1  1  0  0  0  0
  4  7  1  0  0  0  0
  7  8  1  0  0  0  0
  8  9  2  0  0  0  0
  9  5  1  0  0  0  0
  6 10  1  0  0  0  0
 11 10  1  1  0  0  0
 11 12  1  0  0  0  0
 12 13  1  0  0  0  0
 13 14  1  0  0  0  0
 14 15  1  0  0  0  0
 15 16  1  0  0  0  0
 16 11  1  0  0  0  0
 14 17  1  1  0  0  0
 15 18  1  0  0  0  0
 18 19  2  0  0  0  0
 18 20  1  0  0  0  0
 20 21  2  0  0  0  0
M  END
>  <Mol_ID> (679)
3598

>  <Formula> (679)
C15H19N5O

>  <MolWeight> (679)
285.34426

>  <Cat> (679)
S8538

>  <Name> (679)
PF-06651600

>  <Synonyms> (679)
N/A

>  <Target> (679)
JAK3 

>  <Form> (679)
free base

>  <CAS> (679)
1792180-81-4

>  <URL> (679)
http://www.selleckchem.com/products/pf-06651600.html

$$$$
2-D08.cdx
csChFnd80/05071909292D

 20 22  0  0  0  0  0  0  0  0999 V2000
    0.0000    3.5000    0.0000 C   0  0  0  0  0  0  0  0  0  0  0  0
    0.0000    2.1000    0.0000 C   0  0  0  0  0  0  0  0  0  0  0  0
    1.2124    1.4000    0.0000 C   0  0  0  0  0  0  0  0  0  0  0  0
    2.4249    2.1000    0.0000 C   0  0  0  0  0  0  0  0  0  0  0  0
    2.4249    3.5000    0.0000 C   0  0  0  0  0  0  0  0  0  0  0  0
    1.2124    4.2000    0.0000 C   0  0  0  0  0  0  0  0  0  0  0  0
    3.6373    1.4000    0.0000 C   0  0  0  0  0  0  0  0  0  0  0  0
    4.8497    2.1000    0.0000 C   0  0  0  0  0  0  0  0  0  0  0  0
    4.8497    3.5000    0.0000 C   0  0  0  0  0  0  0  0  0  0  0  0
    3.6373    4.2000    0.0000 O   0  0  0  0  0  0  0  0  0  0  0  0
    3.6373    0.0000    0.0000 O   0  0  0  0  0  0  0  0  0  0  0  0
    6.0622    4.2000    0.0000 C   0  0  0  0  0  0  0  0  0  0  0  0
    7.2746    3.5000    0.0000 C   0  0  0  0  0  0  0  0  0  0  0  0
    8.4870    4.2000    0.0000 C   0  0  0  0  0  0  0  0  0  0  0  0
    8.4870    5.6000    0.0000 C   0  0  0  0  0  0  0  0  0  0  0  0
    7.2746    6.3000    0.0000 C   0  0  0  0  0  0  0  0  0  0  0  0
    6.0622    5.6000    0.0000 C   0  0  0  0  0  0  0  0  0  0  0  0
    4.8497    6.3000    0.0000 O   0  0  0  0  0  0  0  0  0  0  0  0
    7.2746    7.7000    0.0000 O   0  0  0  0  0  0  0  0  0  0  0  0
    9.6995    6.3000    0.0000 O   0  0  0  0  0  0  0  0  0  0  0  0
  1  2  2  0  0  0  0
  2  3  1  0  0  0  0
  3  4  2  0  0  0  0
  4  5  1  0  0  0  0
  5  6  2  0  0  0  0
  6  1  1  0  0  0  0
  4  7  1  0  0  0  0
  7  8  1  0  0  0  0
  8  9  2  0  0  0  0
  9 10  1  0  0  0  0
 10  5  1  0  0  0  0
  7 11  2  0  0  0  0
  9 12  1  0  0  0  0
 12 13  2  0  0  0  0
 13 14  1  0  0  0  0
 14 15  2  0  0  0  0
 15 16  1  0  0  0  0
 16 17  2  0  0  0  0
 17 12  1  0  0  0  0
 17 18  1  0  0  0  0
 16 19  1  0  0  0  0
 15 20  1  0  0  0  0
M  END
>  <Mol_ID> (680)
3625

>  <Formula> (680)
C15H10O5

>  <MolWeight> (680)
270.2369

>  <Cat> (680)
S8696

>  <Name> (680)
2-D08
2-D08

>  <Synonyms> (680)
2',3',4'-trihydroxy flavone

>  <Target> (680)
c-RET,SUMO,TAM Receptor,IL Receptor,PI3K,VEG

>  <Form> (680)
free base

>  <CAS> (680)
144707-18-6

>  <URL> (680)
http://selleckchem.com/products/2-d08.html

$$$$
INCB39110 (Itacitinib).cdx
csChFnd80/05071909292D

 40 45  0  0  0  0  0  0  0  0999 V2000
    0.0108    2.1093    0.0000 N   0  0  0  0  0  0  0  0  0  0  0  0
    0.0000    0.7094    0.0000 C   0  0  0  0  0  0  0  0  0  0  0  0
    1.2070    0.0000    0.0000 N   0  0  0  0  0  0  0  0  0  0  0  0
    2.4248    0.6906    0.0000 C   0  0  0  0  0  0  0  0  0  0  0  0
    2.4356    2.0905    0.0000 C   0  0  0  0  0  0  0  0  0  0  0  0
    1.2287    2.7999    0.0000 C   0  0  0  0  0  0  0  0  0  0  0  0
    3.7529    0.2477    0.0000 N   0  0  0  0  0  0  0  0  0  0  0  0
    4.5845    1.3739    0.0000 C   0  0  0  0  0  0  0  0  0  0  0  0
    3.7704    2.5128    0.0000 C   0  0  0  0  0  0  0  0  0  0  0  0
    1.2395    4.1999    0.0000 C   0  0  0  0  0  0  0  0  0  0  0  0
    2.3785    5.0140    0.0000 C   0  0  0  0  0  0  0  0  0  0  0  0
    1.9562    6.3488    0.0000 N   0  0  0  0  0  0  0  0  0  0  0  0
    0.5562    6.3596    0.0000 N   0  0  0  0  0  0  0  0  0  0  0  0
    0.1133    5.0315    0.0000 C   0  0  0  0  0  0  0  0  0  0  0  0
    2.7878    7.4750    0.0000 C   0  0  0  0  0  0  0  0  0  0  0  0
    3.9140    6.6433    0.0000 C   0  0  0  0  0  0  0  0  0  0  0  0
    4.7457    7.7696    0.0000 N   0  0  0  0  0  0  0  0  0  0  0  0
    3.6195    8.6012    0.0000 C   0  0  0  0  0  0  0  0  0  0  0  0
    1.6616    8.3066    0.0000 C   0  0  0  0  0  0  0  0  0  0  0  0
    1.8187    9.6978    0.0000 C   0  0  0  0  0  0  0  0  0  0  0  0
    1.9758   11.0889    0.0000 N   0  0  0  0  0  0  0  0  0  0  0  0
    6.1301    7.9778    0.0000 C   0  0  0  0  0  0  0  0  0  0  0  0
    7.0027    6.8831    0.0000 C   0  0  0  0  0  0  0  0  0  0  0  0
    8.3871    7.0913    0.0000 C   0  0  0  0  0  0  0  0  0  0  0  0
    8.8989    8.3944    0.0000 N   0  0  0  0  0  0  0  0  0  0  0  0
    8.0263    9.4892    0.0000 C   0  0  0  0  0  0  0  0  0  0  0  0
    6.6419    9.2809    0.0000 C   0  0  0  0  0  0  0  0  0  0  0  0
   10.2834    8.6027    0.0000 C   0  0  0  0  0  0  0  0  0  0  0  0
   11.1559    7.5079    0.0000 C   0  0  0  0  0  0  0  0  0  0  0  0
   10.7952    9.9058    0.0000 O   0  0  0  0  0  0  0  0  0  0  0  0
   10.6441    6.2048    0.0000 C   0  0  0  0  0  0  0  0  0  0  0  0
   11.5167    5.1100    0.0000 C   0  0  0  0  0  0  0  0  0  0  0  0
   12.9011    5.3183    0.0000 N   0  0  0  0  0  0  0  0  0  0  0  0
   13.4130    6.6214    0.0000 C   0  0  0  0  0  0  0  0  0  0  0  0
   12.5404    7.7162    0.0000 C   0  0  0  0  0  0  0  0  0  0  0  0
   11.0049    3.8070    0.0000 C   0  0  0  0  0  0  0  0  0  0  0  0
    9.7018    4.3188    0.0000 F   0  0  0  0  0  0  0  0  0  0  0  0
   12.3080    3.2951    0.0000 F   0  0  0  0  0  0  0  0  0  0  0  0
   10.4931    2.5039    0.0000 F   0  0  0  0  0  0  0  0  0  0  0  0
    9.2597    5.9966    0.0000 F   0  0  0  0  0  0  0  0  0  0  0  0
  1  2  2  0  0  0  0
  2  3  1  0  0  0  0
  3  4  2  0  0  0  0
  4  5  1  0  0  0  0
  5  6  2  0  0  0  0
  6  1  1  0  0  0  0
  4  7  1  0  0  0  0
  7  8  1  0  0  0  0
  8  9  2  0  0  0  0
  9  5  1  0  0  0  0
  6 10  1  0  0  0  0
 10 11  2  0  0  0  0
 11 12  1  0  0  0  0
 12 13  1  0  0  0  0
 13 14  2  0  0  0  0
 14 10  1  0  0  0  0
 12 15  1  0  0  0  0
 15 16  1  0  0  0  0
 16 17  1  0  0  0  0
 17 18  1  0  0  0  0
 18 15  1  0  0  0  0
 15 19  1  0  0  0  0
 19 20  1  0  0  0  0
 17 22  1  0  0  0  0
 22 23  1  0  0  0  0
 23 24  1  0  0  0  0
 24 25  1  0  0  0  0
 25 26  1  0  0  0  0
 26 27  1  0  0  0  0
 27 22  1  0  0  0  0
 25 28  1  0  0  0  0
 28 29  1  0  0  0  0
 28 30  2  0  0  0  0
 29 31  2  0  0  0  0
 31 32  1  0  0  0  0
 32 33  2  0  0  0  0
 33 34  1  0  0  0  0
 34 35  2  0  0  0  0
 35 29  1  0  0  0  0
 32 36  1  0  0  0  0
 31 40  1  0  0  0  0
 20 21  3  0  0  0  0
 36 37  1  0  0  0  0
 36 38  1  0  0  0  0
 36 39  1  0  0  0  0
M  END
>  <Mol_ID> (681)
3655

>  <Formula> (681)
C26H23F4N9O

>  <MolWeight> (681)
553.5141328

>  <Cat> (681)
S7812

>  <Name> (681)
Itacitinib (INCB39110)

>  <Synonyms> (681)
N/A

>  <Target> (681)
JAK

>  <Form> (681)
free base

>  <CAS> (681)
1334298-90-6

>  <URL> (681)
http://selleckchem.com/produ-------------------cts/itacitinib-incb39110.html

$$$$
S5077 Regorafenib Monohydrate.cdx
csChFnd80/05071909292D

 34 35  0  0  0  0  0  0  0  0999 V2000
   16.9741    4.5330    0.0000 C   0  0  0  0  0  0  0  0  0  0  0  0
   15.7617    5.2330    0.0000 C   0  0  0  0  0  0  0  0  0  0  0  0
   14.5492    4.5330    0.0000 C   0  0  0  0  0  0  0  0  0  0  0  0
   14.5492    3.1330    0.0000 C   0  0  0  0  0  0  0  0  0  0  0  0
   15.7617    2.4330    0.0000 C   0  0  0  0  0  0  0  0  0  0  0  0
   16.9741    3.1330    0.0000 N   0  0  0  0  0  0  0  0  0  0  0  0
   18.1865    5.2330    0.0000 C   0  0  0  0  0  0  0  0  0  0  0  0
   18.1865    6.6330    0.0000 O   0  0  0  0  0  0  0  0  0  0  0  0
   19.3990    4.5330    0.0000 N   0  0  0  0  0  0  0  0  0  0  0  0
   13.3368    5.2330    0.0000 O   0  0  0  0  0  0  0  0  0  0  0  0
   12.1244    4.5330    0.0000 C   0  0  0  0  0  0  0  0  0  0  0  0
   10.9119    5.2330    0.0000 C   0  0  0  0  0  0  0  0  0  0  0  0
    9.6995    4.5330    0.0000 C   0  0  0  0  0  0  0  0  0  0  0  0
    9.6995    3.1330    0.0000 C   0  0  0  0  0  0  0  0  0  0  0  0
   10.9119    2.4330    0.0000 C   0  0  0  0  0  0  0  0  0  0  0  0
   12.1244    3.1330    0.0000 C   0  0  0  0  0  0  0  0  0  0  0  0
    8.4871    5.2330    0.0000 F   0  0  0  0  0  0  0  0  0  0  0  0
    8.4871    2.4330    0.0000 N   0  0  0  0  0  0  0  0  0  0  0  0
    7.2746    3.1330    0.0000 C   0  0  0  0  0  0  0  0  0  0  0  0
    7.2746    4.5330    0.0000 O   0  0  0  0  0  0  0  0  0  0  0  0
    6.0622    2.4330    0.0000 N   0  0  0  0  0  0  0  0  0  0  0  0
    4.8497    3.1330    0.0000 C   0  0  0  0  0  0  0  0  0  0  0  0
    3.6373    2.4330    0.0000 C   0  0  0  0  0  0  0  0  0  0  0  0
    2.4249    3.1330    0.0000 C   0  0  0  0  0  0  0  0  0  0  0  0
    2.4249    4.5330    0.0000 C   0  0  0  0  0  0  0  0  0  0  0  0
    3.6373    5.2330    0.0000 C   0  0  0  0  0  0  0  0  0  0  0  0
    4.8497    4.5330    0.0000 C   0  0  0  0  0  0  0  0  0  0  0  0
    1.2124    2.4330    0.0000 C   0  0  0  0  0  0  0  0  0  0  0  0
    0.5124    3.6455    0.0000 F   0  0  0  0  0  0  0  0  0  0  0  0
    1.9124    1.2206    0.0000 F   0  0  0  0  0  0  0  0  0  0  0  0
    0.0000    1.7330    0.0000 F   0  0  0  0  0  0  0  0  0  0  0  0
    1.2124    5.2330    0.0000 Cl  0  0  0  0  0  0  0  0  0  0  0  0
   20.6114    5.2330    0.0000 C   0  0  0  0  0  0  0  0  0  0  0  0
   12.0132    0.0000    0.0000 O   0  0  0  0  0  0  0  0  0  0  0  0
  1  2  1  0  0  0  0
  2  3  2  0  0  0  0
  3  4  1  0  0  0  0
  4  5  2  0  0  0  0
  5  6  1  0  0  0  0
  1  6  2  0  0  0  0
  7  8  2  0  0  0  0
  7  9  1  0  0  0  0
  1  7  1  0  0  0  0
 11 12  1  0  0  0  0
 12 13  2  0  0  0  0
 13 14  1  0  0  0  0
 14 15  2  0  0  0  0
 15 16  1  0  0  0  0
 11 16  2  0  0  0  0
 10 11  1  0  0  0  0
 13 17  1  0  0  0  0
 19 20  2  0  0  0  0
 22 23  1  0  0  0  0
 23 24  2  0  0  0  0
 24 25  1  0  0  0  0
 25 26  2  0  0  0  0
 26 27  1  0  0  0  0
 22 27  2  0  0  0  0
 28 29  1  0  0  0  0
 28 30  1  0  0  0  0
 28 31  1  0  0  0  0
 24 28  1  0  0  0  0
 25 32  1  0  0  0  0
 21 22  1  0  0  0  0
 19 21  1  0  0  0  0
 18 19  1  0  0  0  0
 14 18  1  0  0  0  0
  3 10  1  0  0  0  0
  9 33  1  0  0  0  0
M  END
>  <Mol_ID> (682)
3668

>  <Formula> (682)
C21H17ClF4N4O4

>  <MolWeight> (682)
500.8306928

>  <Cat> (682)
S5077

>  <Name> (682)
Regorafenib Monohydrate

>  <Synonyms> (682)
N/A

>  <Target> (682)
VEGFR,PDGFR,c-Kit,c-RET,Raf

>  <Form> (682)
monohydrate

>  <CAS> (682)
1019206-88-2

>  <URL> (682)
http://selleckchem.com/products/regorafenib-monohydrate.html

$$$$
BGB-3111.cdx
csChFnd80/05071909292D

 32 35  0  0  0  0  0  0  0  0999 V2000
    8.7440    4.0912    0.0000 C   0  0  0  0  0  0  0  0  0  0  0  0
    8.7440    2.6912    0.0000 C   0  0  0  0  0  0  0  0  0  0  0  0
    9.9565    1.9912    0.0000 C   0  0  0  0  0  0  0  0  0  0  0  0
   11.1689    2.6912    0.0000 C   0  0  0  0  0  0  0  0  0  0  0  0
   11.1689    4.0912    0.0000 C   0  0  0  0  0  0  0  0  0  0  0  0
    9.9565    4.7912    0.0000 C   0  0  0  0  0  0  0  0  0  0  0  0
    7.5316    4.7912    0.0000 C   0  0  0  0  0  0  0  0  0  0  0  0
   12.3813    1.9912    0.0000 O   0  0  0  0  0  0  0  0  0  0  0  0
   13.5938    2.6912    0.0000 C   0  0  0  0  0  0  0  0  0  0  0  0
   14.8062    1.9912    0.0000 C   0  0  0  0  0  0  0  0  0  0  0  0
   16.0187    2.6912    0.0000 C   0  0  0  0  0  0  0  0  0  0  0  0
   16.0187    4.0912    0.0000 C   0  0  0  0  0  0  0  0  0  0  0  0
   14.8062    4.7912    0.0000 C   0  0  0  0  0  0  0  0  0  0  0  0
   13.5938    4.0912    0.0000 C   0  0  0  0  0  0  0  0  0  0  0  0
    7.3853    6.1836    0.0000 C   0  0  0  0  0  0  0  0  0  0  0  0
    6.0159    6.4746    0.0000 C   0  0  0  0  0  0  0  0  0  0  0  0
    5.3159    5.2622    0.0000 N   0  0  0  0  0  0  0  0  0  0  0  0
    6.2526    4.2218    0.0000 N   0  0  0  0  0  0  0  0  0  0  0  0
    5.4464    7.7536    0.0000 N   0  0  0  0  0  0  0  0  0  0  0  0
    8.4257    7.1203    0.0000 C   0  0  0  0  0  0  0  0  0  0  0  0
    8.1346    8.4897    0.0000 O   0  0  0  0  0  0  0  0  0  0  0  0
    9.7571    6.6877    0.0000 N   0  0  0  0  0  0  0  0  0  0  0  0
    3.9235    5.1159    0.0000 C   0  0  2  0  0  0  0  0  0  0  0  0
    3.1006    6.2485    0.0000 C   0  0  0  0  0  0  0  0  0  0  0  0
    1.7083    6.1021    0.0000 C   0  0  0  0  0  0  0  0  0  0  0  0
    1.1389    4.8232    0.0000 C   0  0  0  0  0  0  0  0  0  0  0  0
    1.9618    3.6906    0.0000 N   0  0  0  0  0  0  0  0  0  0  0  0
    3.3541    3.8369    0.0000 C   0  0  0  0  0  0  0  0  0  0  0  0
    1.3923    2.4116    0.0000 C   0  0  0  0  0  0  0  0  0  0  0  0
    0.0000    2.2652    0.0000 O   0  0  0  0  0  0  0  0  0  0  0  0
    2.2152    1.2790    0.0000 C   0  0  0  0  0  0  0  0  0  0  0  0
    1.6458    0.0000    0.0000 C   0  0  0  0  0  0  0  0  0  0  0  0
  1  2  2  0  0  0  0
  2  3  1  0  0  0  0
  3  4  2  0  0  0  0
  4  5  1  0  0  0  0
  5  6  2  0  0  0  0
  6  1  1  0  0  0  0
  1  7  1  0  0  0  0
  4  8  1  0  0  0  0
  8  9  1  0  0  0  0
  9 10  2  0  0  0  0
 10 11  1  0  0  0  0
 11 12  2  0  0  0  0
 12 13  1  0  0  0  0
 13 14  2  0  0  0  0
 14  9  1  0  0  0  0
  7 15  1  0  0  0  0
 15 16  2  0  0  0  0
 16 17  1  0  0  0  0
 17 18  1  0  0  0  0
 18  7  2  0  0  0  0
 16 19  1  0  0  0  0
 15 20  1  0  0  0  0
 20 21  2  0  0  0  0
 20 22  1  0  0  0  0
 23 17  1  1  0  0  0
 23 24  1  0  0  0  0
 24 25  1  0  0  0  0
 25 26  1  0  0  0  0
 26 27  1  0  0  0  0
 27 28  1  0  0  0  0
 28 23  1  0  0  0  0
 27 29  1  0  0  0  0
 29 30  2  0  0  0  0
 29 31  1  0  0  0  0
 31 32  2  0  0  0  0
M  END
>  <Mol_ID> (683)
3681

>  <Formula> (683)
C24H25N5O3

>  <MolWeight> (683)
431.487

>  <Cat> (683)
S8542

>  <Name> (683)
Btk inhibitor 2

>  <Synonyms> (683)
N/A

>  <Target> (683)
BTK

>  <Form> (683)
free base

>  <CAS> (683)
1558036-85-3

>  <URL> (683)
http://selleckchem.com/products/btk-inhibitor-2.html

$$$$
kira6.cdx
csChFnd80/05071909292D

 38 42  0  0  0  0  0  0  0  0999 V2000
    8.4870    8.0660    0.0000 C   0  0  0  0  0  0  0  0  0  0  0  0
    8.4870    6.6660    0.0000 C   0  0  0  0  0  0  0  0  0  0  0  0
    9.6995    5.9660    0.0000 C   0  0  0  0  0  0  0  0  0  0  0  0
   10.9119    6.6660    0.0000 C   0  0  0  0  0  0  0  0  0  0  0  0
   10.9119    8.0660    0.0000 C   0  0  0  0  0  0  0  0  0  0  0  0
    9.6995    8.7660    0.0000 C   0  0  0  0  0  0  0  0  0  0  0  0
    7.2746    8.7660    0.0000 C   0  0  0  0  0  0  0  0  0  0  0  0
    6.0622    8.0660    0.0000 C   0  0  0  0  0  0  0  0  0  0  0  0
    6.0622    6.6660    0.0000 C   0  0  0  0  0  0  0  0  0  0  0  0
    7.2746    5.9660    0.0000 C   0  0  0  0  0  0  0  0  0  0  0  0
    7.2746   10.1660    0.0000 N   0  0  0  0  0  0  0  0  0  0  0  0
    6.0622   10.8660    0.0000 C   0  0  0  0  0  0  0  0  0  0  0  0
    6.0622   12.2660    0.0000 N   0  0  0  0  0  0  0  0  0  0  0  0
    4.8497   10.1660    0.0000 O   0  0  0  0  0  0  0  0  0  0  0  0
    4.8497   12.9660    0.0000 C   0  0  0  0  0  0  0  0  0  0  0  0
    4.8497   14.3660    0.0000 C   0  0  0  0  0  0  0  0  0  0  0  0
    3.6373   15.0660    0.0000 C   0  0  0  0  0  0  0  0  0  0  0  0
    2.4249   14.3660    0.0000 C   0  0  0  0  0  0  0  0  0  0  0  0
    2.4249   12.9660    0.0000 C   0  0  0  0  0  0  0  0  0  0  0  0
    3.6373   12.2660    0.0000 C   0  0  0  0  0  0  0  0  0  0  0  0
    1.2124   12.2660    0.0000 C   0  0  0  0  0  0  0  0  0  0  0  0
    0.0000   12.9660    0.0000 F   0  0  0  0  0  0  0  0  0  0  0  0
    1.2124   10.8660    0.0000 F   0  0  0  0  0  0  0  0  0  0  0  0
    0.0000   11.5660    0.0000 F   0  0  0  0  0  0  0  0  0  0  0  0
    7.2746    4.5660    0.0000 C   0  0  0  0  0  0  0  0  0  0  0  0
    6.1420    3.7431    0.0000 C   0  0  0  0  0  0  0  0  0  0  0  0
    6.5746    2.4116    0.0000 N   0  0  0  0  0  0  0  0  0  0  0  0
    7.9746    2.4116    0.0000 C   0  0  0  0  0  0  0  0  0  0  0  0
    8.4072    3.7431    0.0000 N   0  0  0  0  0  0  0  0  0  0  0  0
    4.7726    4.0341    0.0000 C   0  0  0  0  0  0  0  0  0  0  0  0
    3.8358    2.9937    0.0000 N   0  0  0  0  0  0  0  0  0  0  0  0
    4.2684    1.6623    0.0000 C   0  0  0  0  0  0  0  0  0  0  0  0
    5.6378    1.3712    0.0000 C   0  0  0  0  0  0  0  0  0  0  0  0
    4.3400    5.3656    0.0000 N   0  0  0  0  0  0  0  0  0  0  0  0
    8.7975    1.2790    0.0000 C   0  0  0  0  0  0  0  0  0  0  0  0
    8.2281    0.0000    0.0000 C   0  0  0  0  0  0  0  0  0  0  0  0
   10.1898    1.4253    0.0000 C   0  0  0  0  0  0  0  0  0  0  0  0
    9.7875    0.2890    0.0000 C   0  0  0  0  0  0  0  0  0  0  0  0
  1  2  2  0  0  0  0
  2  3  1  0  0  0  0
  3  4  2  0  0  0  0
  4  5  1  0  0  0  0
  5  6  2  0  0  0  0
  6  1  1  0  0  0  0
  1  7  1  0  0  0  0
  7  8  2  0  0  0  0
  8  9  1  0  0  0  0
  9 10  2  0  0  0  0
 10  2  1  0  0  0  0
  7 11  1  0  0  0  0
 11 12  1  0  0  0  0
 12 13  1  0  0  0  0
 12 14  2  0  0  0  0
 13 15  1  0  0  0  0
 15 16  2  0  0  0  0
 16 17  1  0  0  0  0
 17 18  2  0  0  0  0
 18 19  1  0  0  0  0
 19 20  2  0  0  0  0
 20 15  1  0  0  0  0
 19 21  1  0  0  0  0
 21 22  1  0  0  0  0
 21 23  1  0  0  0  0
 21 24  1  0  0  0  0
 10 25  1  0  0  0  0
 25 26  2  0  0  0  0
 26 27  1  0  0  0  0
 27 28  1  0  0  0  0
 28 29  2  0  0  0  0
 29 25  1  0  0  0  0
 26 30  1  0  0  0  0
 30 31  2  0  0  0  0
 31 32  1  0  0  0  0
 32 33  2  0  0  0  0
 33 27  1  0  0  0  0
 30 34  1  0  0  0  0
 28 35  1  0  0  0  0
 35 36  1  0  0  0  0
 35 37  1  0  0  0  0
 35 38  1  0  0  0  0
M  END
>  <Mol_ID> (684)
3682

>  <Formula> (684)
C28H25F3N6O

>  <MolWeight> (684)
518.5329096

>  <Cat> (684)
S8658

>  <Name> (684)
kira6

>  <Synonyms> (684)
N/A

>  <Target> (684)
Others

>  <CAS> (684)
1589527-65-0

>  <URL> (684)
http://selleckchem.com/products/kira6.html

$$$$
SNS-314.cdx
csChFnd80/05071909292D

 28 31  0  0  0  0  0  0  0  0999 V2000
    2.1148    2.1000    0.0000 C   0  0  0  0  0  0  0  0  0  0  0  0
    2.1148    0.7000    0.0000 C   0  0  0  0  0  0  0  0  0  0  0  0
    3.3272    0.0000    0.0000 N   0  0  0  0  0  0  0  0  0  0  0  0
    4.5397    0.7000    0.0000 C   0  0  0  0  0  0  0  0  0  0  0  0
    4.5397    2.1000    0.0000 N   0  0  0  0  0  0  0  0  0  0  0  0
    3.3272    2.8000    0.0000 C   0  0  0  0  0  0  0  0  0  0  0  0
    0.7625    2.4623    0.0000 S   0  0  0  0  0  0  0  0  0  0  0  0
    0.0000    1.2882    0.0000 C   0  0  0  0  0  0  0  0  0  0  0  0
    0.8810    0.2002    0.0000 C   0  0  0  0  0  0  0  0  0  0  0  0
    3.3272    4.1951    0.0000 N   0  0  0  0  0  0  0  0  0  0  0  0
    4.5355    4.8927    0.0000 C   0  0  0  0  0  0  0  0  0  0  0  0
    5.7437    4.1951    0.0000 C   0  0  0  0  0  0  0  0  0  0  0  0
    6.9519    4.8927    0.0000 C   0  0  0  0  0  0  0  0  0  0  0  0
    8.2309    4.3233    0.0000 S   0  0  0  0  0  0  0  0  0  0  0  0
    9.1677    5.3637    0.0000 C   0  0  0  0  0  0  0  0  0  0  0  0
    8.4677    6.5761    0.0000 N   0  0  0  0  0  0  0  0  0  0  0  0
    7.0983    6.2850    0.0000 C   0  0  0  0  0  0  0  0  0  0  0  0
   10.5552    5.2179    0.0000 N   0  0  0  0  0  0  0  0  0  0  0  0
   11.1226    3.9433    0.0000 C   0  0  0  0  0  0  0  0  0  0  0  0
   12.5101    3.7975    0.0000 N   0  0  0  0  0  0  0  0  0  0  0  0
   10.3026    2.8146    0.0000 O   0  0  0  0  0  0  0  0  0  0  0  0
   13.3560    4.9070    0.0000 C   0  0  0  0  0  0  0  0  0  0  0  0
   14.7446    4.7286    0.0000 C   0  0  0  0  0  0  0  0  0  0  0  0
   15.5934    5.8419    0.0000 C   0  0  0  0  0  0  0  0  0  0  0  0
   15.0536    7.1337    0.0000 C   0  0  0  0  0  0  0  0  0  0  0  0
   13.6650    7.3121    0.0000 C   0  0  0  0  0  0  0  0  0  0  0  0
   12.8162    6.1987    0.0000 C   0  0  0  0  0  0  0  0  0  0  0  0
   16.9771    5.6641    0.0000 Cl  0  0  0  0  0  0  0  0  0  0  0  0
  1  2  2  0  0  0  0
  2  3  1  0  0  0  0
  3  4  2  0  0  0  0
  4  5  1  0  0  0  0
  5  6  2  0  0  0  0
  6  1  1  0  0  0  0
  1  7  1  0  0  0  0
  7  8  1  0  0  0  0
  8  9  2  0  0  0  0
  9  2  1  0  0  0  0
  6 10  1  0  0  0  0
 10 11  1  0  0  0  0
 11 12  1  0  0  0  0
 12 13  1  0  0  0  0
 13 14  1  0  0  0  0
 14 15  1  0  0  0  0
 15 16  2  0  0  0  0
 16 17  1  0  0  0  0
 17 13  2  0  0  0  0
 15 18  1  0  0  0  0
 18 19  1  0  0  0  0
 19 20  1  0  0  0  0
 19 21  2  0  0  0  0
 20 22  1  0  0  0  0
 22 23  2  0  0  0  0
 23 24  1  0  0  0  0
 24 25  2  0  0  0  0
 25 26  1  0  0  0  0
 26 27  2  0  0  0  0
 27 22  1  0  0  0  0
 24 28  1  0  0  0  0
M  END
>  <Mol_ID> (685)
3686

>  <Formula> (685)
C18H15ClN6OS2

>  <MolWeight> (685)
430.9343

>  <Cat> (685)
S8699

>  <Name> (685)
SNS-314 Mesylate

>  <Synonyms> (685)
N/A

>  <Target> (685)
Aurora Kinase

>  <CAS> (685)
1057249-41-8

>  <URL> (685)
http://selleckchem.com/products/sns-314.html

$$$$
BMS-935177.cdx
csChFnd80/05071909292D

 38 43  0  0  0  0  0  0  0  0999 V2000
    6.3314    8.4000    0.0000 C   0  0  0  0  0  0  0  0  0  0  0  0
    6.3314    7.0000    0.0000 C   0  0  0  0  0  0  0  0  0  0  0  0
    7.5438    6.3000    0.0000 C   0  0  0  0  0  0  0  0  0  0  0  0
    8.7562    7.0000    0.0000 C   0  0  0  0  0  0  0  0  0  0  0  0
    8.7562    8.4000    0.0000 C   0  0  0  0  0  0  0  0  0  0  0  0
    7.5438    9.1000    0.0000 C   0  0  0  0  0  0  0  0  0  0  0  0
    4.9999    8.8326    0.0000 N   0  0  0  0  0  0  0  0  0  0  0  0
    4.1770    7.7000    0.0000 C   0  0  0  0  0  0  0  0  0  0  0  0
    4.9999    6.5674    0.0000 C   0  0  0  0  0  0  0  0  0  0  0  0
    2.7847    7.5537    0.0000 C   0  0  0  0  0  0  0  0  0  0  0  0
    2.2152    6.2747    0.0000 C   0  0  0  0  0  0  0  0  0  0  0  0
    3.0381    5.1421    0.0000 C   0  0  0  0  0  0  0  0  0  0  0  0
    4.4305    5.2884    0.0000 C   0  0  0  0  0  0  0  0  0  0  0  0
    0.8229    6.1284    0.0000 C   0  0  0  0  0  0  0  0  0  0  0  0
    0.2535    4.8494    0.0000 O   0  0  0  0  0  0  0  0  0  0  0  0
    0.0000    7.2610    0.0000 C   0  0  0  0  0  0  0  0  0  0  0  0
    1.3923    7.4073    0.0000 C   0  0  0  0  0  0  0  0  0  0  0  0
    7.5438   10.5000    0.0000 C   0  0  0  0  0  0  0  0  0  0  0  0
    8.7562   11.2000    0.0000 N   0  0  0  0  0  0  0  0  0  0  0  0
    7.5438    4.9000    0.0000 C   0  0  0  0  0  0  0  0  0  0  0  0
    6.3314    4.2000    0.0000 C   0  0  0  0  0  0  0  0  0  0  0  0
    6.3314    2.8000    0.0000 C   0  0  0  0  0  0  0  0  0  0  0  0
    7.5438    2.1000    0.0000 C   0  0  0  0  0  0  0  0  0  0  0  0
    8.7562    2.8000    0.0000 C   0  0  0  0  0  0  0  0  0  0  0  0
    8.7562    4.2000    0.0000 C   0  0  0  0  0  0  0  0  0  0  0  0
    9.9687    4.9000    0.0000 C   0  0  0  0  0  0  0  0  0  0  0  0
    9.9687    2.1000    0.0000 N   0  0  0  0  0  0  0  0  0  0  0  0
    9.9687    0.7000    0.0000 C   0  0  0  0  0  0  0  0  0  0  0  0
   11.1811    0.0000    0.0000 N   0  0  0  0  0  0  0  0  0  0  0  0
   12.3935    0.7000    0.0000 C   0  0  0  0  0  0  0  0  0  0  0  0
   12.3935    2.1000    0.0000 C   0  0  0  0  0  0  0  0  0  0  0  0
   11.1811    2.8000    0.0000 C   0  0  0  0  0  0  0  0  0  0  0  0
   13.6060    0.0000    0.0000 C   0  0  0  0  0  0  0  0  0  0  0  0
   14.8184    0.7000    0.0000 C   0  0  0  0  0  0  0  0  0  0  0  0
   14.8184    2.1000    0.0000 C   0  0  0  0  0  0  0  0  0  0  0  0
   13.6060    2.8000    0.0000 C   0  0  0  0  0  0  0  0  0  0  0  0
   11.1811    4.2000    0.0000 O   0  0  0  0  0  0  0  0  0  0  0  0
    6.3314   11.2000    0.0000 O   0  0  0  0  0  0  0  0  0  0  0  0
  1  2  2  0  0  0  0
  2  3  1  0  0  0  0
  3  4  2  0  0  0  0
  4  5  1  0  0  0  0
  5  6  2  0  0  0  0
  6  1  1  0  0  0  0
  1  7  1  0  0  0  0
  7  8  1  0  0  0  0
  8  9  2  0  0  0  0
  9  2  1  0  0  0  0
  8 10  1  0  0  0  0
 10 11  2  0  0  0  0
 11 12  1  0  0  0  0
 12 13  2  0  0  0  0
 13  9  1  0  0  0  0
 11 14  1  0  0  0  0
 14 15  1  0  0  0  0
 14 16  1  0  0  0  0
 14 17  1  0  0  0  0
  6 18  1  0  0  0  0
 18 19  1  0  0  0  0
  3 20  1  0  0  0  0
 20 21  2  0  0  0  0
 21 22  1  0  0  0  0
 22 23  2  0  0  0  0
 23 24  1  0  0  0  0
 24 25  2  0  0  0  0
 25 20  1  0  0  0  0
 25 26  1  0  0  0  0
 24 27  1  0  0  0  0
 27 28  1  0  0  0  0
 28 29  2  0  0  0  0
 29 30  1  0  0  0  0
 30 31  2  0  0  0  0
 31 32  1  0  0  0  0
 32 27  1  0  0  0  0
 30 33  1  0  0  0  0
 33 34  2  0  0  0  0
 34 35  1  0  0  0  0
 35 36  2  0  0  0  0
 36 31  1  0  0  0  0
 32 37  2  0  0  0  0
 18 38  2  0  0  0  0
M  END
>  <Mol_ID> (686)
3695

>  <Formula> (686)
C31H26N4O3

>  <MolWeight> (686)
502.56314

>  <Cat> (686)
S8348

>  <Name> (686)
BMS-935177

>  <Synonyms> (686)
N/A

>  <Target> (686)
BTK,Trk receptor,c-RET

>  <Form> (686)
free base

>  <CAS> (686)
1231889-53-4

>  <URL> (686)
http://selleckchem.com/products/bms-935177.html

$$$$
KPT-9274.cdx
csChFnd80/05071909292D

 45 50  0  0  0  0  0  0  0  0999 V2000
    1.2124    4.7539    0.0000 C   0  0  0  0  0  0  0  0  0  0  0  0
    1.2124    3.3539    0.0000 N   0  0  0  0  0  0  0  0  0  0  0  0
    2.4249    2.6539    0.0000 C   0  0  0  0  0  0  0  0  0  0  0  0
    3.6373    3.3539    0.0000 C   0  0  0  0  0  0  0  0  0  0  0  0
    3.6373    4.7539    0.0000 C   0  0  0  0  0  0  0  0  0  0  0  0
    2.4249    5.4539    0.0000 C   0  0  0  0  0  0  0  0  0  0  0  0
    0.0000    5.4539    0.0000 N   0  0  0  0  0  0  0  0  0  0  0  0
    4.8497    2.6539    0.0000 C   0  0  0  0  0  0  0  0  0  0  0  0
    6.0622    3.3539    0.0000 C   0  0  0  0  0  0  0  0  0  0  0  0
    7.2746    2.6539    0.0000 C   0  0  0  0  0  0  0  0  0  0  0  0
    8.4871    3.3539    0.0000 N   0  0  0  0  0  0  0  0  0  0  0  0
    7.2746    1.2539    0.0000 O   0  0  0  0  0  0  0  0  0  0  0  0
    9.6995    2.6539    0.0000 C   0  0  0  0  0  0  0  0  0  0  0  0
   10.9119    3.3539    0.0000 C   0  0  0  0  0  0  0  0  0  0  0  0
   12.1909    2.7845    0.0000 C   0  0  0  0  0  0  0  0  0  0  0  0
   13.1277    3.8249    0.0000 C   0  0  0  0  0  0  0  0  0  0  0  0
   12.4277    5.0373    0.0000 C   0  0  0  0  0  0  0  0  0  0  0  0
   11.0583    4.7462    0.0000 O   0  0  0  0  0  0  0  0  0  0  0  0
   14.5277    3.8249    0.0000 C   0  0  0  0  0  0  0  0  0  0  0  0
   15.2277    5.0373    0.0000 C   0  0  0  0  0  0  0  0  0  0  0  0
   14.5277    6.2497    0.0000 C   0  0  0  0  0  0  0  0  0  0  0  0
   13.1277    6.2497    0.0000 C   0  0  0  0  0  0  0  0  0  0  0  0
   12.4277    7.4622    0.0000 C   0  0  0  0  0  0  0  0  0  0  0  0
   16.6277    5.0373    0.0000 C   0  0  0  0  0  0  0  0  0  0  0  0
   17.3277    3.8249    0.0000 C   0  0  0  0  0  0  0  0  0  0  0  0
   18.7277    3.8249    0.0000 C   0  0  0  0  0  0  0  0  0  0  0  0
   19.4277    5.0373    0.0000 C   0  0  0  0  0  0  0  0  0  0  0  0
   18.7277    6.2497    0.0000 C   0  0  0  0  0  0  0  0  0  0  0  0
   17.3277    6.2497    0.0000 C   0  0  0  0  0  0  0  0  0  0  0  0
   20.8277    5.0373    0.0000 C   0  0  0  0  0  0  0  0  0  0  0  0
   21.5277    6.2497    0.0000 O   0  0  0  0  0  0  0  0  0  0  0  0
   21.5277    3.8249    0.0000 N   0  0  0  0  0  0  0  0  0  0  0  0
   20.8277    2.6124    0.0000 C   0  0  0  0  0  0  0  0  0  0  0  0
   21.5277    1.4000    0.0000 C   0  0  0  0  0  0  0  0  0  0  0  0
   23.6277    2.6124    0.0000 C   0  0  0  0  0  0  0  0  0  0  0  0
   22.9277    3.8249    0.0000 C   0  0  0  0  0  0  0  0  0  0  0  0
   22.9277    0.0000    0.0000 F   0  0  0  0  0  0  0  0  0  0  0  0
   22.9277    1.4000    0.0000 C   0  0  0  0  0  0  0  0  0  0  0  0
   23.9176    0.4101    0.0000 F   0  0  0  0  0  0  0  0  0  0  0  0
   13.1277    8.6746    0.0000 C   0  0  0  0  0  0  0  0  0  0  0  0
   12.4277    9.8871    0.0000 C   0  0  0  0  0  0  0  0  0  0  0  0
   11.0277    9.8871    0.0000 C   0  0  0  0  0  0  0  0  0  0  0  0
   10.3277    8.6746    0.0000 C   0  0  0  0  0  0  0  0  0  0  0  0
   11.0277    7.4622    0.0000 C   0  0  0  0  0  0  0  0  0  0  0  0
   10.3277   11.0995    0.0000 F   0  0  0  0  0  0  0  0  0  0  0  0
  1  2  2  0  0  0  0
  2  3  1  0  0  0  0
  3  4  2  0  0  0  0
  4  5  1  0  0  0  0
  5  6  2  0  0  0  0
  6  1  1  0  0  0  0
  1  7  1  0  0  0  0
  4  8  1  0  0  0  0
  8  9  2  0  0  0  0
  9 10  1  0  0  0  0
 10 11  1  0  0  0  0
 10 12  2  0  0  0  0
 11 13  1  0  0  0  0
 13 14  1  0  0  0  0
 14 15  2  0  0  0  0
 15 16  1  0  0  0  0
 16 17  2  0  0  0  0
 17 18  1  0  0  0  0
 18 14  1  0  0  0  0
 16 19  1  0  0  0  0
 19 20  2  0  0  0  0
 20 21  1  0  0  0  0
 21 22  2  0  0  0  0
 22 17  1  0  0  0  0
 22 23  1  0  0  0  0
 20 24  1  0  0  0  0
 24 25  2  0  0  0  0
 25 26  1  0  0  0  0
 26 27  2  0  0  0  0
 27 28  1  0  0  0  0
 28 29  2  0  0  0  0
 29 24  1  0  0  0  0
 27 30  1  0  0  0  0
 30 31  2  0  0  0  0
 30 32  1  0  0  0  0
 32 33  1  0  0  0  0
 33 34  1  0  0  0  0
 34 38  1  0  0  0  0
 38 35  1  0  0  0  0
 35 36  1  0  0  0  0
 36 32  1  0  0  0  0
 38 37  1  0  0  0  0
 38 39  1  0  0  0  0
 23 40  2  0  0  0  0
 40 41  1  0  0  0  0
 41 42  2  0  0  0  0
 42 43  1  0  0  0  0
 43 44  2  0  0  0  0
 44 23  1  0  0  0  0
 42 45  1  0  0  0  0
M  END
>  <Mol_ID> (687)
3696

>  <Formula> (687)
C35H29F3N4O3

>  <MolWeight> (687)
610.6249696

>  <Cat> (687)
S8444

>  <Name> (687)
KPT-9274

>  <Synonyms> (687)
N/A

>  <Target> (687)
NAMPT,PAK

>  <Form> (687)
free base

>  <CAS> (687)
1643913-93-2

>  <URL> (687)
http://selleckchem.com/products/kpt-9274.html

$$$$
Asciminib(ABL001).cdx
csChFnd80/05071909292D

 31 34  0  0  0  0  0  0  0  0999 V2000
    3.4282    4.2000    0.0000 C   0  0  0  0  0  0  0  0  0  0  0  0
    3.4282    2.8000    0.0000 C   0  0  0  0  0  0  0  0  0  0  0  0
    4.6406    2.1000    0.0000 C   0  0  0  0  0  0  0  0  0  0  0  0
    5.8531    2.8000    0.0000 C   0  0  0  0  0  0  0  0  0  0  0  0
    5.8531    4.2000    0.0000 C   0  0  0  0  0  0  0  0  0  0  0  0
    4.6406    4.9000    0.0000 N   0  0  0  0  0  0  0  0  0  0  0  0
    2.2157    4.9000    0.0000 N   0  0  0  0  0  0  0  0  0  0  0  0
    2.2157    2.1000    0.0000 C   0  0  0  0  0  0  0  0  0  0  0  0
    7.0655    2.1000    0.0000 C   0  0  0  0  0  0  0  0  0  0  0  0
    7.0655    0.7000    0.0000 O   0  0  0  0  0  0  0  0  0  0  0  0
    8.2779    2.8000    0.0000 N   0  0  0  0  0  0  0  0  0  0  0  0
    9.4904    2.1000    0.0000 C   0  0  0  0  0  0  0  0  0  0  0  0
    9.4904    0.7000    0.0000 C   0  0  0  0  0  0  0  0  0  0  0  0
   10.7028    0.0000    0.0000 C   0  0  0  0  0  0  0  0  0  0  0  0
   11.9152    0.7000    0.0000 C   0  0  0  0  0  0  0  0  0  0  0  0
   11.9152    2.1000    0.0000 C   0  0  0  0  0  0  0  0  0  0  0  0
   10.7028    2.8000    0.0000 C   0  0  0  0  0  0  0  0  0  0  0  0
   13.1277    0.0000    0.0000 O   0  0  0  0  0  0  0  0  0  0  0  0
   14.3401    0.7000    0.0000 C   0  0  0  0  0  0  0  0  0  0  0  0
   14.3401    2.1000    0.0000 F   0  0  0  0  0  0  0  0  0  0  0  0
   15.5525    0.0000    0.0000 F   0  0  0  0  0  0  0  0  0  0  0  0
   15.5525    1.4000    0.0000 Cl  0  0  0  0  0  0  0  0  0  0  0  0
    2.0694    6.2923    0.0000 C   0  0  0  0  0  0  0  0  0  0  0  0
    0.7000    6.5834    0.0000 C   0  0  1  0  0  0  0  0  0  0  0  0
    0.0000    5.3710    0.0000 C   0  0  0  0  0  0  0  0  0  0  0  0
    0.9368    4.3306    0.0000 C   0  0  0  0  0  0  0  0  0  0  0  0
    0.9368    2.6694    0.0000 N   0  0  0  0  0  0  0  0  0  0  0  0
    0.0000    1.6290    0.0000 N   0  0  0  0  0  0  0  0  0  0  0  0
    0.7000    0.4166    0.0000 C   0  0  0  0  0  0  0  0  0  0  0  0
    2.0694    0.7077    0.0000 C   0  0  0  0  0  0  0  0  0  0  0  0
    0.1306    7.8624    0.0000 O   0  0  0  0  0  0  0  0  0  0  0  0
  1  2  2  0  0  0  0
  2  3  1  0  0  0  0
  3  4  2  0  0  0  0
  4  5  1  0  0  0  0
  5  6  2  0  0  0  0
  6  1  1  0  0  0  0
  1  7  1  0  0  0  0
  2  8  1  0  0  0  0
  4  9  1  0  0  0  0
  9 10  2  0  0  0  0
  9 11  1  0  0  0  0
 11 12  1  0  0  0  0
 12 13  2  0  0  0  0
 13 14  1  0  0  0  0
 14 15  2  0  0  0  0
 15 16  1  0  0  0  0
 16 17  2  0  0  0  0
 17 12  1  0  0  0  0
 15 18  1  0  0  0  0
 18 19  1  0  0  0  0
 19 20  1  0  0  0  0
 19 21  1  0  0  0  0
 19 22  1  0  0  0  0
  7 23  1  0  0  0  0
 23 24  1  0  0  0  0
 24 25  1  0  0  0  0
 25 26  1  0  0  0  0
 26  7  1  0  0  0  0
  8 27  1  0  0  0  0
 27 28  1  0  0  0  0
 28 29  2  0  0  0  0
 29 30  1  0  0  0  0
 30  8  2  0  0  0  0
 24 31  1  1  0  0  0
M  END
>  <Mol_ID> (688)
3702

>  <Formula> (688)
C20H18ClF2N5O3

>  <MolWeight> (688)
449.8384264

>  <Cat> (688)
S8555

>  <Name> (688)
Asciminib (ABL001)

>  <Synonyms> (688)
N/A

>  <Target> (688)
Bcr-Abl

>  <Form> (688)
free base

>  <CAS> (688)
1492952-76-7

>  <URL> (688)
http://selleckchem.com/products/asciminib-abl001.html

$$$$
Tenalisib (RP6530).cdx
csChFnd80/05071909292D

 31 35  0  0  0  0  0  0  0  0999 V2000
    0.0000    4.2000    0.0000 C   0  0  0  0  0  0  0  0  0  0  0  0
    0.0000    2.8000    0.0000 C   0  0  0  0  0  0  0  0  0  0  0  0
    1.2124    2.1000    0.0000 C   0  0  0  0  0  0  0  0  0  0  0  0
    2.4249    2.8000    0.0000 C   0  0  0  0  0  0  0  0  0  0  0  0
    2.4249    4.2000    0.0000 C   0  0  0  0  0  0  0  0  0  0  0  0
    1.2124    4.9000    0.0000 C   0  0  0  0  0  0  0  0  0  0  0  0
    3.6373    2.1000    0.0000 C   0  0  0  0  0  0  0  0  0  0  0  0
    4.8497    2.8000    0.0000 C   0  0  0  0  0  0  0  0  0  0  0  0
    4.8497    4.2000    0.0000 C   0  0  0  0  0  0  0  0  0  0  0  0
    3.6373    4.9000    0.0000 O   0  0  0  0  0  0  0  0  0  0  0  0
    3.6373    0.7000    0.0000 O   0  0  0  0  0  0  0  0  0  0  0  0
    6.0622    2.1000    0.0000 C   0  0  0  0  0  0  0  0  0  0  0  0
    6.0622    4.9000    0.0000 C   0  0  1  0  0  0  0  0  0  0  0  0
    6.0622    6.3000    0.0000 N   0  0  0  0  0  0  0  0  0  0  0  0
    7.2746    4.2000    0.0000 C   0  0  0  0  0  0  0  0  0  0  0  0
    8.4870    4.9000    0.0000 C   0  0  0  0  0  0  0  0  0  0  0  0
    4.8497    7.0000    0.0000 C   0  0  0  0  0  0  0  0  0  0  0  0
    4.8497    8.4000    0.0000 C   0  0  0  0  0  0  0  0  0  0  0  0
    3.6373    9.1000    0.0000 C   0  0  0  0  0  0  0  0  0  0  0  0
    2.4249    8.4000    0.0000 N   0  0  0  0  0  0  0  0  0  0  0  0
    2.4249    7.0000    0.0000 C   0  0  0  0  0  0  0  0  0  0  0  0
    3.6373    6.3000    0.0000 N   0  0  0  0  0  0  0  0  0  0  0  0
    5.8901    9.3368    0.0000 N   0  0  0  0  0  0  0  0  0  0  0  0
    5.3207   10.6157    0.0000 C   0  0  0  0  0  0  0  0  0  0  0  0
    3.9284   10.4694    0.0000 N   0  0  0  0  0  0  0  0  0  0  0  0
    6.0622    0.7000    0.0000 C   0  0  0  0  0  0  0  0  0  0  0  0
    7.2746    0.0000    0.0000 C   0  0  0  0  0  0  0  0  0  0  0  0
    8.4870    0.7000    0.0000 C   0  0  0  0  0  0  0  0  0  0  0  0
    8.4870    2.1000    0.0000 C   0  0  0  0  0  0  0  0  0  0  0  0
    7.2746    2.8000    0.0000 C   0  0  0  0  0  0  0  0  0  0  0  0
    9.6995    2.8000    0.0000 F   0  0  0  0  0  0  0  0  0  0  0  0
  1  2  2  0  0  0  0
  2  3  1  0  0  0  0
  3  4  2  0  0  0  0
  4  5  1  0  0  0  0
  5  6  2  0  0  0  0
  6  1  1  0  0  0  0
  4  7  1  0  0  0  0
  7  8  1  0  0  0  0
  8  9  2  0  0  0  0
  9 10  1  0  0  0  0
 10  5  1  0  0  0  0
  7 11  2  0  0  0  0
  8 12  1  0  0  0  0
  9 13  1  0  0  0  0
 13 14  1  1  0  0  0
 13 15  1  0  0  0  0
 15 16  1  0  0  0  0
 14 17  1  0  0  0  0
 17 18  2  0  0  0  0
 18 19  1  0  0  0  0
 19 20  2  0  0  0  0
 20 21  1  0  0  0  0
 21 22  2  0  0  0  0
 22 17  1  0  0  0  0
 18 23  1  0  0  0  0
 23 24  2  0  0  0  0
 24 25  1  0  0  0  0
 25 19  1  0  0  0  0
 12 26  2  0  0  0  0
 26 27  1  0  0  0  0
 27 28  2  0  0  0  0
 28 29  1  0  0  0  0
 29 30  2  0  0  0  0
 30 12  1  0  0  0  0
 29 31  1  0  0  0  0
M  END
>  <Mol_ID> (689)
3703

>  <Formula> (689)
C23H18FN5O2

>  <MolWeight> (689)
415.4197232

>  <Cat> (689)
S8672

>  <Name> (689)
Tenalisib (RP6530)

>  <Synonyms> (689)
N/A

>  <Target> (689)
PI3K

>  <Form> (689)
free base

>  <CAS> (689)
1639417-53-0

>  <URL> (689)
http://selleckchem.com/products/tenalisib-rp6530.html

$$$$
RAF709.cdx
csChFnd80/05071909292D

 39 43  0  0  0  0  0  0  0  0999 V2000
    3.6373    6.3000    0.0000 C   0  0  0  0  0  0  0  0  0  0  0  0
    3.6373    4.9000    0.0000 C   0  0  0  0  0  0  0  0  0  0  0  0
    4.8497    4.2000    0.0000 N   0  0  0  0  0  0  0  0  0  0  0  0
    6.0622    4.9000    0.0000 C   0  0  0  0  0  0  0  0  0  0  0  0
    6.0622    6.3000    0.0000 C   0  0  0  0  0  0  0  0  0  0  0  0
    4.8497    7.0000    0.0000 C   0  0  0  0  0  0  0  0  0  0  0  0
    2.4249    7.0000    0.0000 N   0  0  0  0  0  0  0  0  0  0  0  0
    2.4249    4.2000    0.0000 O   0  0  0  0  0  0  0  0  0  0  0  0
    7.2746    7.0000    0.0000 C   0  0  0  0  0  0  0  0  0  0  0  0
    2.4249    2.8000    0.0000 C   0  0  0  0  0  0  0  0  0  0  0  0
    1.2124    2.1000    0.0000 C   0  0  0  0  0  0  0  0  0  0  0  0
    1.2124    0.7000    0.0000 C   0  0  0  0  0  0  0  0  0  0  0  0
    2.4249    0.0000    0.0000 O   0  0  0  0  0  0  0  0  0  0  0  0
    3.6373    0.7000    0.0000 C   0  0  0  0  0  0  0  0  0  0  0  0
    3.6373    2.1000    0.0000 C   0  0  0  0  0  0  0  0  0  0  0  0
    2.4249    8.4000    0.0000 C   0  0  0  0  0  0  0  0  0  0  0  0
    1.2124    9.1000    0.0000 C   0  0  0  0  0  0  0  0  0  0  0  0
    0.0000    8.4000    0.0000 O   0  0  0  0  0  0  0  0  0  0  0  0
    0.0000    7.0000    0.0000 C   0  0  0  0  0  0  0  0  0  0  0  0
    1.2124    6.3000    0.0000 C   0  0  0  0  0  0  0  0  0  0  0  0
    8.4870    6.3000    0.0000 C   0  0  0  0  0  0  0  0  0  0  0  0
    9.6995    7.0000    0.0000 C   0  0  0  0  0  0  0  0  0  0  0  0
    9.6995    8.4000    0.0000 C   0  0  0  0  0  0  0  0  0  0  0  0
    8.4870    9.1000    0.0000 N   0  0  0  0  0  0  0  0  0  0  0  0
    7.2746    8.4000    0.0000 C   0  0  0  0  0  0  0  0  0  0  0  0
    6.0622    9.1000    0.0000 C   0  0  0  0  0  0  0  0  0  0  0  0
   10.9119    6.3000    0.0000 N   0  0  0  0  0  0  0  0  0  0  0  0
   10.9119    4.9000    0.0000 C   0  0  0  0  0  0  0  0  0  0  0  0
   12.1244    4.2000    0.0000 C   0  0  0  0  0  0  0  0  0  0  0  0
    9.6995    4.2000    0.0000 O   0  0  0  0  0  0  0  0  0  0  0  0
   12.1244    2.8000    0.0000 C   0  0  0  0  0  0  0  0  0  0  0  0
   13.3368    2.1000    0.0000 C   0  0  0  0  0  0  0  0  0  0  0  0
   14.5492    2.8000    0.0000 C   0  0  0  0  0  0  0  0  0  0  0  0
   14.5492    4.2000    0.0000 C   0  0  0  0  0  0  0  0  0  0  0  0
   13.3368    4.9000    0.0000 C   0  0  0  0  0  0  0  0  0  0  0  0
   15.7617    4.9000    0.0000 C   0  0  0  0  0  0  0  0  0  0  0  0
   16.9741    4.2000    0.0000 F   0  0  0  0  0  0  0  0  0  0  0  0
   15.7617    6.3000    0.0000 F   0  0  0  0  0  0  0  0  0  0  0  0
   16.9741    5.6000    0.0000 F   0  0  0  0  0  0  0  0  0  0  0  0
  1  2  2  0  0  0  0
  2  3  1  0  0  0  0
  3  4  2  0  0  0  0
  4  5  1  0  0  0  0
  5  6  2  0  0  0  0
  6  1  1  0  0  0  0
  1  7  1  0  0  0  0
  2  8  1  0  0  0  0
  5  9  1  0  0  0  0
  8 10  1  0  0  0  0
 10 11  1  0  0  0  0
 11 12  1  0  0  0  0
 12 13  1  0  0  0  0
 13 14  1  0  0  0  0
 14 15  1  0  0  0  0
 15 10  1  0  0  0  0
  7 16  1  0  0  0  0
 16 17  1  0  0  0  0
 17 18  1  0  0  0  0
 18 19  1  0  0  0  0
 19 20  1  0  0  0  0
 20  7  1  0  0  0  0
  9 21  2  0  0  0  0
 21 22  1  0  0  0  0
 22 23  2  0  0  0  0
 23 24  1  0  0  0  0
 24 25  2  0  0  0  0
 25  9  1  0  0  0  0
 25 26  1  0  0  0  0
 22 27  1  0  0  0  0
 27 28  1  0  0  0  0
 28 29  1  0  0  0  0
 28 30  2  0  0  0  0
 29 31  2  0  0  0  0
 31 32  1  0  0  0  0
 32 33  2  0  0  0  0
 33 34  1  0  0  0  0
 34 35  2  0  0  0  0
 35 29  1  0  0  0  0
 34 36  1  0  0  0  0
 36 37  1  0  0  0  0
 36 38  1  0  0  0  0
 36 39  1  0  0  0  0
M  END
>  <Mol_ID> (690)
3718

>  <Formula> (690)
C28H29F3N4O4

>  <MolWeight> (690)
542.5494696

>  <Cat> (690)
S8690

>  <Name> (690)
RAF709

>  <Synonyms> (690)
N/A

>  <Target> (690)
Raf

>  <Form> (690)
free base

>  <CAS> (690)
1628838-42-5

>  <URL> (690)
http://selleckchem.com/products/raf709.html

$$$$
S5232 Alectinib hydrochloride.cdx
csChFnd80/05071909292D

 37 41  0  0  0  0  0  0  0  0999 V2000
   13.4556    5.2894    0.0000 N   0  0  0  0  0  0  0  0  0  0  0  0
   12.1242    4.8567    0.0000 C   0  0  0  0  0  0  0  0  0  0  0  0
   10.9117    5.5567    0.0000 C   0  0  0  0  0  0  0  0  0  0  0  0
    9.6993    4.8567    0.0000 C   0  0  0  0  0  0  0  0  0  0  0  0
    9.6993    3.4567    0.0000 C   0  0  0  0  0  0  0  0  0  0  0  0
   10.9117    2.7567    0.0000 C   0  0  0  0  0  0  0  0  0  0  0  0
   12.1242    3.4567    0.0000 C   0  0  0  0  0  0  0  0  0  0  0  0
   13.4556    3.0242    0.0000 C   0  0  0  0  0  0  0  0  0  0  0  0
   14.0249    1.7452    0.0000 C   0  0  0  0  0  0  0  0  0  0  0  0
   15.4173    1.5989    0.0000 C   0  0  0  0  0  0  0  0  0  0  0  0
   16.2401    2.7314    0.0000 C   0  0  0  0  0  0  0  0  0  0  0  0
   15.6708    4.0104    0.0000 C   0  0  0  0  0  0  0  0  0  0  0  0
   14.2785    4.1567    0.0000 C   0  0  0  0  0  0  0  0  0  0  0  0
    8.4870    2.7567    0.0000 C   0  0  0  0  0  0  0  0  0  0  0  0
    7.2745    3.4567    0.0000 C   0  0  0  0  0  0  0  0  0  0  0  0
    7.2745    4.8567    0.0000 C   0  0  0  0  0  0  0  0  0  0  0  0
    8.4870    5.5567    0.0000 C   0  0  0  0  0  0  0  0  0  0  0  0
   17.6325    2.5852    0.0000 C   0  0  0  0  0  0  0  0  0  0  0  0
   19.0248    2.4389    0.0000 N   0  0  0  0  0  0  0  0  0  0  0  0
   10.9117    1.3567    0.0000 O   0  0  0  0  0  0  0  0  0  0  0  0
    6.0620    5.5567    0.0000 N   0  0  0  0  0  0  0  0  0  0  0  0
    4.8495    4.8567    0.0000 C   0  0  0  0  0  0  0  0  0  0  0  0
    3.6372    5.5567    0.0000 C   0  0  0  0  0  0  0  0  0  0  0  0
    3.6372    6.9567    0.0000 C   0  0  0  0  0  0  0  0  0  0  0  0
    4.8495    7.6567    0.0000 C   0  0  0  0  0  0  0  0  0  0  0  0
    6.0620    6.9567    0.0000 C   0  0  0  0  0  0  0  0  0  0  0  0
    0.0000    9.0567    0.0000 O   0  0  0  0  0  0  0  0  0  0  0  0
    1.2123    9.7566    0.0000 C   0  0  0  0  0  0  0  0  0  0  0  0
    2.4248    9.0567    0.0000 C   0  0  0  0  0  0  0  0  0  0  0  0
    2.4248    7.6567    0.0000 N   0  0  0  0  0  0  0  0  0  0  0  0
    1.2123    6.9567    0.0000 C   0  0  0  0  0  0  0  0  0  0  0  0
    0.0000    7.6567    0.0000 C   0  0  0  0  0  0  0  0  0  0  0  0
   11.8116    6.6292    0.0000 C   0  0  0  0  0  0  0  0  0  0  0  0
   10.0118    6.6292    0.0000 C   0  0  0  0  0  0  0  0  0  0  0  0
    6.0620    2.7567    0.0000 C   0  0  0  0  0  0  0  0  0  0  0  0
    4.8495    3.4567    0.0000 C   0  0  0  0  0  0  0  0  0  0  0  0
   13.8698    0.0000    0.0000 Cl  0  0  0  0  0  0  0  0  0  0  0  0
  1  2  1  0  0  0  0
  2  3  1  0  0  0  0
  3  4  1  0  0  0  0
  4  5  1  0  0  0  0
  5  6  1  0  0  0  0
  6  7  1  0  0  0  0
  2  7  2  0  0  0  0
  7  8  1  0  0  0  0
  8  9  1  0  0  0  0
  9 10  2  0  0  0  0
 10 11  1  0  0  0  0
 11 12  2  0  0  0  0
 12 13  1  0  0  0  0
  8 13  2  0  0  0  0
  1 13  1  0  0  0  0
 14 15  1  0  0  0  0
 15 16  2  0  0  0  0
 16 17  1  0  0  0  0
  4 17  2  0  0  0  0
  5 14  2  0  0  0  0
 18 19  3  0  0  0  0
 11 18  1  0  0  0  0
  6 20  2  0  0  0  0
 21 22  1  0  0  0  0
 22 23  1  0  0  0  0
 23 24  1  0  0  0  0
 24 25  1  0  0  0  0
 25 26  1  0  0  0  0
 21 26  1  0  0  0  0
 27 28  1  0  0  0  0
 28 29  1  0  0  0  0
 29 30  1  0  0  0  0
 30 31  1  0  0  0  0
 31 32  1  0  0  0  0
 27 32  1  0  0  0  0
 24 30  1  0  0  0  0
 16 21  1  0  0  0  0
  3 33  1  0  0  0  0
  3 34  1  0  0  0  0
 35 36  1  0  0  0  0
 15 35  1  0  0  0  0
M  END
>  <Mol_ID> (691)
3726

>  <Formula> (691)
C30H35ClN4O2

>  <MolWeight> (691)
519.0775

>  <Cat> (691)
S5232

>  <Name> (691)
Alectinib hydrochloride

>  <Synonyms> (691)
AF802 hydrochloride

>  <Target> (691)
ALK

>  <Form> (691)
hydrochloride 

>  <CAS> (691)
1256589-74-8

>  <URL> (691)
http://selleckchem.com/products/alectinib-hydrochloride.html

$$$$
S5321 Y15.cdx
csChFnd80/05071909292D

 14 10  0  0  0  0  0  0  0  0999 V2000
    7.1296    0.7007    0.0000 C   0  0  0  0  0  0  0  0  0  0  0  0
    7.1296    2.0821    0.0000 C   0  0  0  0  0  0  0  0  0  0  0  0
    8.3200    0.0000    0.0000 C   0  0  0  0  0  0  0  0  0  0  0  0
    5.9158    0.0000    0.0000 N   0  0  0  0  0  0  0  0  0  0  0  0
    8.3200    2.7797    0.0000 C   0  0  0  0  0  0  0  0  0  0  0  0
    5.9158    2.7797    0.0000 N   0  0  0  0  0  0  0  0  0  0  0  0
    9.5338    0.7007    0.0000 C   0  0  0  0  0  0  0  0  0  0  0  0
    9.5338    2.0821    0.0000 C   0  0  0  0  0  0  0  0  0  0  0  0
   10.7510    0.0000    0.0000 N   0  0  0  0  0  0  0  0  0  0  0  0
   10.7510    2.7797    0.0000 N   0  0  0  0  0  0  0  0  0  0  0  0
    2.1000   11.8001    0.0000 Cl  0  0  0  0  0  0  0  0  0  0  0  0
    0.7000   11.8001    0.0000 Cl  0  0  0  0  0  0  0  0  0  0  0  0
    1.4000   10.4001    0.0000 Cl  0  0  0  0  0  0  0  0  0  0  0  0
    0.0000   10.4001    0.0000 Cl  0  0  0  0  0  0  0  0  0  0  0  0
  1  2  1  0  0  0  0
  1  3  2  0  0  0  0
  1  4  1  0  0  0  0
  2  5  2  0  0  0  0
  2  6  1  0  0  0  0
  3  7  1  0  0  0  0
  5  8  1  0  0  0  0
  7  9  1  0  0  0  0
  7  8  2  0  0  0  0
  8 10  1  0  0  0  0
M  END
>  <Mol_ID> (692)
3769

>  <Formula> (692)
C6H14Cl4N4

>  <MolWeight> (692)
284.01416

>  <Cat> (692)
S5321

>  <Name> (692)
Y15

>  <Synonyms> (692)
1,2,4,5-Benzenetetraamine tetrahydrochloride

>  <Target> (692)
FAK

>  <Form> (692)
tetrahydrochloride 

>  <CAS> (692)
4506-66-5

>  <URL> (692)
http://selleckchem.com/products/y15.html

$$$$
S5243 Ruxolitinib  Phosphate.cdx
csChFnd80/05071909292D

 28 30  0  0  0  0  0  0  0  0999 V2000
    1.2083    0.0000    0.0000 N   0  0  0  0  0  0  0  0  0  0  0  0
    0.0000    0.6929    0.0000 C   0  0  0  0  0  0  0  0  0  0  0  0
    0.0000    2.0931    0.0000 N   0  0  0  0  0  0  0  0  0  0  0  0
    1.2083    2.8002    0.0000 C   0  0  0  0  0  0  0  0  0  0  0  0
    2.4165    0.6929    0.0000 C   0  0  0  0  0  0  0  0  0  0  0  0
    2.4165    2.0931    0.0000 C   0  0  0  0  0  0  0  0  0  0  0  0
    3.7478    2.5258    0.0000 C   0  0  0  0  0  0  0  0  0  0  0  0
    4.5709    1.3929    0.0000 C   0  0  0  0  0  0  0  0  0  0  0  0
    3.7480    0.2605    0.0000 N   0  0  0  0  0  0  0  0  0  0  0  0
    1.2083    4.2003    0.0000 C   0  0  0  0  0  0  0  0  0  0  0  0
    0.0813    5.0191    0.0000 C   0  0  0  0  0  0  0  0  0  0  0  0
    0.5139    6.3506    0.0000 N   0  0  0  0  0  0  0  0  0  0  0  0
    1.9141    6.3506    0.0000 N   0  0  0  0  0  0  0  0  0  0  0  0
    2.3465    5.0191    0.0000 C   0  0  0  0  0  0  0  0  0  0  0  0
    2.7371    7.4831    0.0000 C   0  0  1  0  0  0  0  0  0  0  0  0
    2.1678    8.7622    0.0000 C   0  0  0  0  0  0  0  0  0  0  0  0
    4.1295    7.3367    0.0000 C   0  0  0  0  0  0  0  0  0  0  0  0
    2.8679    9.9746    0.0000 C   0  0  0  0  0  0  0  0  0  0  0  0
    1.9312   11.0150    0.0000 C   0  0  0  0  0  0  0  0  0  0  0  0
    0.6521   10.4457    0.0000 C   0  0  0  0  0  0  0  0  0  0  0  0
    0.7984    9.0534    0.0000 C   0  0  0  0  0  0  0  0  0  0  0  0
    4.9496    8.4653    0.0000 C   0  0  0  0  0  0  0  0  0  0  0  0
    5.7726    9.5979    0.0000 N   0  0  0  0  0  0  0  0  0  0  0  0
    9.1591    2.8229    0.0000 P   0  0  0  0  0  0  0  0  0  0  0  0
    9.1591    1.4277    0.0000 O   0  0  0  0  0  0  0  0  0  0  0  0
    7.7640    2.8229    0.0000 O   0  0  0  0  0  0  0  0  0  0  0  0
    9.1591    4.2180    0.0000 O   0  0  0  0  0  0  0  0  0  0  0  0
   10.5542    2.8229    0.0000 O   0  0  0  0  0  0  0  0  0  0  0  0
  5  1  1  0  0  0  0
  1  2  2  0  0  0  0
  2  3  1  0  0  0  0
  3  4  2  0  0  0  0
  6  4  1  0  0  0  0
  4 10  1  0  0  0  0
  5  6  2  0  0  0  0
  9  5  1  0  0  0  0
  6  7  1  0  0  0  0
  7  8  2  0  0  0  0
  8  9  1  0  0  0  0
 14 10  2  0  0  0  0
 10 11  1  0  0  0  0
 11 12  2  0  0  0  0
 12 13  1  0  0  0  0
 13 14  1  0  0  0  0
 15 13  1  0  0  0  0
 15 16  1  0  0  0  0
 15 17  1  1  0  0  0
 16 18  1  0  0  0  0
 18 19  1  0  0  0  0
 19 20  1  0  0  0  0
 20 21  1  0  0  0  0
 21 16  1  0  0  0  0
 17 22  1  0  0  0  0
 22 23  3  0  0  0  0
 24 25  2  0  0  0  0
 24 26  1  0  0  0  0
 24 27  1  0  0  0  0
 24 28  1  0  0  0  0
M  END
>  <Mol_ID> (693)
3777

>  <Formula> (693)
C17H21N6O4P

>  <MolWeight> (693)
404.360201

>  <Cat> (693)
S5243

>  <Name> (693)
Ruxolitinib Phosphate

>  <Synonyms> (693)
INCB018424, INC424

>  <Target> (693)
JAK

>  <Form> (693)
phosphate 

>  <CAS> (693)
1092939-17-7

>  <URL> (693)
http://selleckchem.com/products/ruxolitinib-phosphate.html

$$$$
S5313 SC66.cdx
csChFnd80/05071909292D

 21 23  0  0  0  0  0  0  0  0999 V2000
    0.0000    2.1000    0.0000 C   0  0  0  0  0  0  0  0  0  0  0  0
    0.0000    0.7000    0.0000 N   0  0  0  0  0  0  0  0  0  0  0  0
    1.2124    0.0000    0.0000 C   0  0  0  0  0  0  0  0  0  0  0  0
    2.4249    0.7000    0.0000 C   0  0  0  0  0  0  0  0  0  0  0  0
    2.4249    2.1000    0.0000 C   0  0  0  0  0  0  0  0  0  0  0  0
    1.2124    2.8000    0.0000 C   0  0  0  0  0  0  0  0  0  0  0  0
    3.6373    2.8000    0.0000 C   0  0  0  0  0  0  0  0  0  0  0  0
    4.8497    2.1000    0.0000 C   0  0  0  0  0  0  0  0  0  0  0  0
    4.8497    0.7000    0.0000 C   0  0  0  0  0  0  0  0  0  0  0  0
    6.0622    0.0000    0.0000 C   0  0  0  0  0  0  0  0  0  0  0  0
    7.2746    0.7000    0.0000 C   0  0  0  0  0  0  0  0  0  0  0  0
    7.2746    2.1000    0.0000 C   0  0  0  0  0  0  0  0  0  0  0  0
    6.0622    2.8000    0.0000 C   0  0  0  0  0  0  0  0  0  0  0  0
    6.0622    4.2000    0.0000 O   0  0  0  0  0  0  0  0  0  0  0  0
    8.4870    2.8000    0.0000 C   0  0  0  0  0  0  0  0  0  0  0  0
    9.6995    2.1000    0.0000 C   0  0  0  0  0  0  0  0  0  0  0  0
    9.6995    0.7000    0.0000 C   0  0  0  0  0  0  0  0  0  0  0  0
   10.9119    0.0000    0.0000 C   0  0  0  0  0  0  0  0  0  0  0  0
   12.1244    0.7000    0.0000 N   0  0  0  0  0  0  0  0  0  0  0  0
   12.1244    2.1000    0.0000 C   0  0  0  0  0  0  0  0  0  0  0  0
   10.9119    2.8000    0.0000 C   0  0  0  0  0  0  0  0  0  0  0  0
  1  2  2  0  0  0  0
  2  3  1  0  0  0  0
  3  4  2  0  0  0  0
  4  5  1  0  0  0  0
  5  6  2  0  0  0  0
  6  1  1  0  0  0  0
  5  7  1  0  0  0  0
  7  8  2  0  0  0  0
  8  9  1  0  0  0  0
  9 10  1  0  0  0  0
 10 11  1  0  0  0  0
 11 12  1  0  0  0  0
 12 13  1  0  0  0  0
 13  8  1  0  0  0  0
 13 14  2  0  0  0  0
 12 15  2  0  0  0  0
 15 16  1  0  0  0  0
 16 17  2  0  0  0  0
 17 18  1  0  0  0  0
 18 19  2  0  0  0  0
 19 20  1  0  0  0  0
 20 21  2  0  0  0  0
 21 16  1  0  0  0  0
M  END
>  <Mol_ID> (694)
3783

>  <Formula> (694)
C18H16N2O

>  <MolWeight> (694)
276.33244

>  <Cat> (694)
S5313

>  <Name> (694)
SC66

>  <Synonyms> (694)
N/A

>  <Target> (694)
Akt

>  <Form> (694)
free base

>  <CAS> (694)
871361-88-5

>  <URL> (694)
http://selleckchem.com/products/sc66.html

$$$$
S5316 NU2058.cdx
csChFnd80/05071909292D

 18 20  0  0  0  0  0  0  0  0999 V2000
    4.8434    0.0000    0.0000 N   0  0  0  0  0  0  0  0  0  0  0  0
    3.6325    2.1079    0.0000 N   0  0  0  0  0  0  0  0  0  0  0  0
    6.0543    0.7027    0.0000 C   0  0  0  0  0  0  0  0  0  0  0  0
    6.0543    2.1079    0.0000 C   0  0  0  0  0  0  0  0  0  0  0  0
    4.8434    2.8104    0.0000 C   0  0  0  0  0  0  0  0  0  0  0  0
    3.6325    0.7027    0.0000 C   0  0  0  0  0  0  0  0  0  0  0  0
    7.4145    2.5263    0.0000 N   0  0  0  0  0  0  0  0  0  0  0  0
    7.4145    0.2841    0.0000 N   0  0  0  0  0  0  0  0  0  0  0  0
    8.1918    1.4052    0.0000 C   0  0  0  0  0  0  0  0  0  0  0  0
    4.8434    4.2006    0.0000 O   0  0  0  0  0  0  0  0  0  0  0  0
    2.4216    0.0000    0.0000 N   0  0  0  0  0  0  0  0  0  0  0  0
    3.6325    4.9033    0.0000 C   0  0  0  0  0  0  0  0  0  0  0  0
    2.4216    4.2006    0.0000 C   0  0  0  0  0  0  0  0  0  0  0  0
    2.4216    2.7954    0.0000 C   0  0  0  0  0  0  0  0  0  0  0  0
    1.2109    4.9033    0.0000 C   0  0  0  0  0  0  0  0  0  0  0  0
    1.2109    2.0929    0.0000 C   0  0  0  0  0  0  0  0  0  0  0  0
    0.0000    4.2155    0.0000 C   0  0  0  0  0  0  0  0  0  0  0  0
    0.0000    2.7954    0.0000 C   0  0  0  0  0  0  0  0  0  0  0  0
  3  1  1  0  0  0  0
  6  1  2  0  0  0  0
  2  6  1  0  0  0  0
  5  2  2  0  0  0  0
  4  3  2  0  0  0  0
  8  3  1  0  0  0  0
  7  4  1  0  0  0  0
  5  4  1  0  0  0  0
 10  5  1  0  0  0  0
 11  6  1  0  0  0  0
  9  7  2  0  0  0  0
  9  8  1  0  0  0  0
 12 10  1  0  0  0  0
 13 12  1  0  0  0  0
 14 13  1  0  0  0  0
 15 13  1  0  0  0  0
 16 14  1  0  0  0  0
 17 15  1  0  0  0  0
 18 16  1  0  0  0  0
 18 17  1  0  0  0  0
M  END
>  <Mol_ID> (695)
3785

>  <Formula> (695)
C12H17N5O

>  <MolWeight> (695)
247.29628

>  <Cat> (695)
S5316

>  <Name> (695)
NU2058

>  <Synonyms> (695)
O(6)-Cyclohexylmethylguanine

>  <Target> (695)
CDK

>  <Form> (695)
free base

>  <CAS> (695)
161058-83-9

>  <URL> (695)
http://selleckchem.com/products/nu2058.html

$$$$
AZD1390.cdx
csChFnd80/05071909292D

 35 39  0  0  0  0  0  0  0  0999 V2000
    8.4870    4.2000    0.0000 C   0  0  0  0  0  0  0  0  0  0  0  0
    8.4870    2.8000    0.0000 C   0  0  0  0  0  0  0  0  0  0  0  0
    9.6995    2.1000    0.0000 C   0  0  0  0  0  0  0  0  0  0  0  0
   10.9119    2.8000    0.0000 C   0  0  0  0  0  0  0  0  0  0  0  0
   10.9119    4.2000    0.0000 C   0  0  0  0  0  0  0  0  0  0  0  0
    9.6995    4.9000    0.0000 N   0  0  0  0  0  0  0  0  0  0  0  0
    7.2746    4.9000    0.0000 O   0  0  0  0  0  0  0  0  0  0  0  0
    6.0622    4.2000    0.0000 C   0  0  0  0  0  0  0  0  0  0  0  0
    4.8497    4.9000    0.0000 C   0  0  0  0  0  0  0  0  0  0  0  0
    3.6373    4.2000    0.0000 C   0  0  0  0  0  0  0  0  0  0  0  0
    2.4249    4.9000    0.0000 N   0  0  0  0  0  0  0  0  0  0  0  0
   12.1244    2.1000    0.0000 C   0  0  0  0  0  0  0  0  0  0  0  0
   12.1244    0.7000    0.0000 C   0  0  0  0  0  0  0  0  0  0  0  0
   13.3368    0.0000    0.0000 C   0  0  0  0  0  0  0  0  0  0  0  0
   14.5492    0.7000    0.0000 C   0  0  0  0  0  0  0  0  0  0  0  0
   14.5492    2.1000    0.0000 C   0  0  0  0  0  0  0  0  0  0  0  0
   13.3368    2.8000    0.0000 C   0  0  0  0  0  0  0  0  0  0  0  0
   15.7617    0.0000    0.0000 N   0  0  0  0  0  0  0  0  0  0  0  0
   16.9741    0.7000    0.0000 C   0  0  0  0  0  0  0  0  0  0  0  0
   16.9741    2.1000    0.0000 C   0  0  0  0  0  0  0  0  0  0  0  0
   15.7617    2.8000    0.0000 C   0  0  0  0  0  0  0  0  0  0  0  0
   10.9119    0.0000    0.0000 F   0  0  0  0  0  0  0  0  0  0  0  0
   18.0145    3.0368    0.0000 N   0  0  0  0  0  0  0  0  0  0  0  0
   17.4451    4.3157    0.0000 C   0  0  0  0  0  0  0  0  0  0  0  0
   16.0527    4.1694    0.0000 N   0  0  0  0  0  0  0  0  0  0  0  0
   15.1160    5.2098    0.0000 C   0  0  0  0  0  0  0  0  0  0  0  0
   15.5486    6.5413    0.0000 C   0  0  0  0  0  0  0  0  0  0  0  0
   13.7465    4.9187    0.0000 C   0  0  0  0  0  0  0  0  0  0  0  0
   18.1451    5.5282    0.0000 O   0  0  0  0  0  0  0  0  0  0  0  0
   19.3839    2.7457    0.0000 C   0  0  0  0  0  0  0  0  0  0  0  0
    2.4249    6.3000    0.0000 C   0  0  0  0  0  0  0  0  0  0  0  0
    1.2124    7.0000    0.0000 C   0  0  0  0  0  0  0  0  0  0  0  0
    0.0000    6.3000    0.0000 C   0  0  0  0  0  0  0  0  0  0  0  0
    0.0000    4.9000    0.0000 C   0  0  0  0  0  0  0  0  0  0  0  0
    1.2124    4.2000    0.0000 C   0  0  0  0  0  0  0  0  0  0  0  0
  1  2  2  0  0  0  0
  2  3  1  0  0  0  0
  3  4  2  0  0  0  0
  4  5  1  0  0  0  0
  5  6  2  0  0  0  0
  6  1  1  0  0  0  0
  1  7  1  0  0  0  0
  7  8  1  0  0  0  0
  8  9  1  0  0  0  0
  9 10  1  0  0  0  0
 10 11  1  0  0  0  0
  4 12  1  0  0  0  0
 12 13  2  0  0  0  0
 13 14  1  0  0  0  0
 14 15  2  0  0  0  0
 15 16  1  0  0  0  0
 16 17  2  0  0  0  0
 17 12  1  0  0  0  0
 15 18  1  0  0  0  0
 18 19  2  0  0  0  0
 19 20  1  0  0  0  0
 20 21  2  0  0  0  0
 21 16  1  0  0  0  0
 13 22  1  0  0  0  0
 20 23  1  0  0  0  0
 23 24  1  0  0  0  0
 24 25  1  0  0  0  0
 25 21  1  0  0  0  0
 25 26  1  0  0  0  0
 26 27  1  0  0  0  0
 26 28  1  0  0  0  0
 24 29  2  0  0  0  0
 23 30  1  0  0  0  0
 11 31  1  0  0  0  0
 31 32  1  0  0  0  0
 32 33  1  0  0  0  0
 33 34  1  0  0  0  0
 34 35  1  0  0  0  0
 35 11  1  0  0  0  0
M  END
>  <Mol_ID> (696)
3789

>  <Formula> (696)
C27H32FN5O2

>  <MolWeight> (696)
477.5736832

>  <Cat> (696)
S8680

>  <Name> (696)
AZD1390

>  <Synonyms> (696)
N/A

>  <Target> (696)
ATM/ATR

>  <Form> (696)
free base

>  <CAS> (696)
2089288-03-7

>  <URL> (696)
http://selleckchem.com/products/azd1390.html

$$$$
S5098 Gefitinib hydrochloride.cdx
csChFnd80/05071909292D

 32 34  0  0  0  0  0  0  0  0999 V2000
   10.9179    4.8962    0.0000 C   0  0  0  0  0  0  0  0  0  0  0  0
   12.1553    4.1818    0.0000 C   0  0  0  0  0  0  0  0  0  0  0  0
   10.9179    6.3227    0.0000 C   0  0  0  0  0  0  0  0  0  0  0  0
    9.6978    4.1918    0.0000 C   0  0  0  0  0  0  0  0  0  0  0  0
   12.1553    2.7802    0.0000 N   0  0  0  0  0  0  0  0  0  0  0  0
   13.3793    4.8885    0.0000 N   0  0  0  0  0  0  0  0  0  0  0  0
    9.6935    7.0296    0.0000 C   0  0  0  0  0  0  0  0  0  0  0  0
   12.1579    7.0386    0.0000 N   0  0  0  0  0  0  0  0  0  0  0  0
    8.4783    4.8959    0.0000 C   0  0  0  0  0  0  0  0  0  0  0  0
   13.3677    2.0802    0.0000 C   0  0  0  0  0  0  0  0  0  0  0  0
   13.3793    6.3215    0.0000 C   0  0  0  0  0  0  0  0  0  0  0  0
    8.4881    6.3336    0.0000 C   0  0  0  0  0  0  0  0  0  0  0  0
    7.2676    4.1969    0.0000 O   0  0  0  0  0  0  0  0  0  0  0  0
   14.5630    2.7703    0.0000 C   0  0  0  0  0  0  0  0  0  0  0  0
   13.3677    0.6930    0.0000 C   0  0  0  0  0  0  0  0  0  0  0  0
    7.2859    7.0277    0.0000 O   0  0  0  0  0  0  0  0  0  0  0  0
    6.0378    4.9069    0.0000 C   0  0  0  0  0  0  0  0  0  0  0  0
   15.7527    2.0834    0.0000 C   0  0  0  0  0  0  0  0  0  0  0  0
   14.5681    0.0000    0.0000 C   0  0  0  0  0  0  0  0  0  0  0  0
    6.0703    6.3258    0.0000 C   0  0  0  0  0  0  0  0  0  0  0  0
    4.8321    4.2108    0.0000 C   0  0  0  0  0  0  0  0  0  0  0  0
   15.7527    0.7121    0.0000 C   0  0  0  0  0  0  0  0  0  0  0  0
   16.9671    2.7845    0.0000 Cl  0  0  0  0  0  0  0  0  0  0  0  0
    3.6142    4.9139    0.0000 C   0  0  0  0  0  0  0  0  0  0  0  0
   16.9721    0.0081    0.0000 F   0  0  0  0  0  0  0  0  0  0  0  0
    2.4023    4.2142    0.0000 N   0  0  0  0  0  0  0  0  0  0  0  0
    2.4023    2.8312    0.0000 C   0  0  0  0  0  0  0  0  0  0  0  0
    1.2021    4.9072    0.0000 C   0  0  0  0  0  0  0  0  0  0  0  0
    1.2060    2.1406    0.0000 C   0  0  0  0  0  0  0  0  0  0  0  0
    0.0000    4.2131    0.0000 C   0  0  0  0  0  0  0  0  0  0  0  0
    0.0146    2.8285    0.0000 O   0  0  0  0  0  0  0  0  0  0  0  0
    8.8956    1.3920    0.0000 Cl  0  0  0  0  0  0  0  0  0  0  0  0
  1  2  1  0  0  0  0
  1  3  2  0  0  0  0
  1  4  1  0  0  0  0
  2  5  1  0  0  0  0
  2  6  2  0  0  0  0
  3  7  1  0  0  0  0
  3  8  1  0  0  0  0
  4  9  2  0  0  0  0
  5 10  1  0  0  0  0
  6 11  1  0  0  0  0
  7 12  2  0  0  0  0
  8 11  2  0  0  0  0
  9 13  1  0  0  0  0
  9 12  1  0  0  0  0
 10 14  2  0  0  0  0
 10 15  1  0  0  0  0
 12 16  1  0  0  0  0
 13 17  1  0  0  0  0
 14 18  1  0  0  0  0
 15 19  2  0  0  0  0
 16 20  1  0  0  0  0
 17 21  1  0  0  0  0
 18 22  2  0  0  0  0
 18 23  1  0  0  0  0
 19 22  1  0  0  0  0
 21 24  1  0  0  0  0
 22 25  1  0  0  0  0
 24 26  1  0  0  0  0
 26 27  1  0  0  0  0
 26 28  1  0  0  0  0
 27 29  1  0  0  0  0
 28 30  1  0  0  0  0
 29 31  1  0  0  0  0
 30 31  1  0  0  0  0
M  END
>  <Mol_ID> (697)
3791

>  <Formula> (697)
C22H25Cl2FN4O3

>  <MolWeight> (697)
483.3633032

>  <Cat> (697)
S5098

>  <Name> (697)
Gefitinib hydrochloride

>  <Synonyms> (697)
ZD1839 hydrochloride

>  <Target> (697)
EGFR

>  <Form> (697)
hydrochloride 

>  <CAS> (697)
184475-55-6

>  <URL> (697)
http://selleckchem.com/products/gefitinib-hydrochloride.html

$$$$
GSK'963.cdx
csChFnd80/05071909292D

 17 18  0  0  0  0  0  0  0  0999 V2000
    0.0000    3.7834    0.0000 C   0  0  0  0  0  0  0  0  0  0  0  0
    0.0000    2.3834    0.0000 C   0  0  0  0  0  0  0  0  0  0  0  0
    1.2124    1.6834    0.0000 C   0  0  0  0  0  0  0  0  0  0  0  0
    2.4249    2.3834    0.0000 C   0  0  0  0  0  0  0  0  0  0  0  0
    2.4249    3.7834    0.0000 C   0  0  0  0  0  0  0  0  0  0  0  0
    1.2124    4.4834    0.0000 C   0  0  0  0  0  0  0  0  0  0  0  0
    3.6373    1.6834    0.0000 C   0  0  2  0  0  0  0  0  0  0  0  0
    3.7836    0.2911    0.0000 C   0  0  0  0  0  0  0  0  0  0  0  0
    5.1531    0.0000    0.0000 C   0  0  0  0  0  0  0  0  0  0  0  0
    5.8531    1.2124    0.0000 N   0  0  0  0  0  0  0  0  0  0  0  0
    4.9163    2.2528    0.0000 N   0  0  0  0  0  0  0  0  0  0  0  0
    5.2073    3.6222    0.0000 C   0  0  0  0  0  0  0  0  0  0  0  0
    4.1669    4.5590    0.0000 O   0  0  0  0  0  0  0  0  0  0  0  0
    6.5388    4.0549    0.0000 C   0  0  0  0  0  0  0  0  0  0  0  0
    7.5792    3.1181    0.0000 C   0  0  0  0  0  0  0  0  0  0  0  0
    6.8299    5.4243    0.0000 C   0  0  0  0  0  0  0  0  0  0  0  0
    7.8911    4.4172    0.0000 C   0  0  0  0  0  0  0  0  0  0  0  0
  1  2  2  0  0  0  0
  2  3  1  0  0  0  0
  3  4  2  0  0  0  0
  4  5  1  0  0  0  0
  5  6  2  0  0  0  0
  6  1  1  0  0  0  0
  7  4  1  1  0  0  0
  7  8  1  0  0  0  0
  8  9  1  0  0  0  0
  9 10  2  0  0  0  0
 10 11  1  0  0  0  0
 11  7  1  0  0  0  0
 11 12  1  0  0  0  0
 12 13  2  0  0  0  0
 12 14  1  0  0  0  0
 14 15  1  0  0  0  0
 14 16  1  0  0  0  0
 14 17  1  0  0  0  0
M  END
>  <Mol_ID> (698)
3841

>  <Formula> (698)
C14H18N2O

>  <MolWeight> (698)
230.30552

>  <Cat> (698)
S8642

>  <Name> (698)
GSK'963

>  <Synonyms> (698)
N/A

>  <Target> (698)
NF-B,TNF-alpha

>  <Form> (698)
free base

>  <CAS> (698)
2049868-46-2

>  <URL> (698)
http://selleckchem.com/products/gsk963.html

$$$$
bpV (HOpic).cdx
csChFnd80/05071909292D

 18 19  0  0  0  0  0  0  0  0999 V2000
   13.5013    3.1523    0.0000 C   0  0  0  0  0  0  0  0  0  0  0  0
   13.5013    1.7523    0.0000 C   0  0  0  0  0  0  0  0  0  0  0  0
   14.7137    1.0523    0.0000 C   0  0  0  0  0  0  0  0  0  0  0  0
   15.9261    1.7523    0.0000 N   0  0  0  0  0  0  0  0  0  0  0  0
   15.9261    3.1523    0.0000 C   0  0  0  0  0  0  0  0  0  0  0  0
   14.7137    3.8523    0.0000 C   0  0  0  0  0  0  0  0  0  0  0  0
   17.2576    1.3197    0.0000 V   0  1  0  0  0  0  0  0  0  0  0  0
   18.0805    2.4523    0.0000 O   0  5  0  0  0  0  0  0  0  0  0  0
   17.2576    3.5849    0.0000 C   0  0  0  0  0  0  0  0  0  0  0  0
   17.5885    4.6033    0.0000 O   0  0  0  0  0  0  0  0  0  0  0  0
   12.5740    1.2170    0.0000 O   0  0  0  0  0  0  0  0  0  0  0  0
   16.2973    0.8461    0.0000 O   0  0  0  0  0  0  0  0  0  0  0  0
   16.7903    0.0000    0.0000 O   0  5  0  0  0  0  0  0  0  0  0  0
   17.8603    0.0561    0.0000 O   0  5  0  0  0  0  0  0  0  0  0  0
   18.6374    1.5568    0.0000 O   0  5  0  0  0  0  0  0  0  0  0  0
   18.5711    0.8351    0.0000 O   0  5  0  0  0  0  0  0  0  0  0  0
    9.7222   22.7687    0.0000 K   0  3  0  0  0  0  0  0  0  0  0  0
    0.0000   22.7687    0.0000 K   0  3  0  0  0  0  0  0  0  0  0  0
  1  2  2  0  0  0  0
  2  3  1  0  0  0  0
  3  4  2  0  0  0  0
  4  5  1  0  0  0  0
  5  6  2  0  0  0  0
  6  1  1  0  0  0  0
  4  7  1  0  0  0  0
  7  8  1  0  0  0  0
  8  9  1  0  0  0  0
  9  5  1  0  0  0  0
  9 10  2  0  0  0  0
  2 11  1  0  0  0  0
  7 12  2  0  0  0  0
  7 13  1  0  0  0  0
  7 14  1  0  0  0  0
 13 14  1  0  0  0  0
  7 15  1  0  0  0  0
  7 16  1  0  0  0  0
 15 16  1  0  0  0  0
M  END
>  <Mol_ID> (699)
3842

>  <Formula> (699)
C6H4K2NO8V

>  <MolWeight> (699)
347.23596

>  <Cat> (699)
S8651

>  <Name> (699)
bpV (HOpic)

>  <Synonyms> (699)
Bisperoxovanadium(HOpic)

>  <Target> (699)
PTEN

>  <Form> (699)
potassium 

>  <CAS> (699)
722494-26-0

>  <URL> (699)
http://selleckchem.com/products/bpv-hopic.html

$$$$
Anlotinib (AL3818).cdx
csChFnd80/05071909292D

 32 34  0  0  0  0  0  0  0  0999 V2000
   11.4375    3.3124    0.0000 C   0  0  0  0  0  0  0  0  0  0  0  0
   11.4375    1.9124    0.0000 C   0  0  0  0  0  0  0  0  0  0  0  0
   12.6499    1.2124    0.0000 C   0  0  0  0  0  0  0  0  0  0  0  0
   13.8624    1.9124    0.0000 C   0  0  0  0  0  0  0  0  0  0  0  0
   13.8624    3.3124    0.0000 C   0  0  0  0  0  0  0  0  0  0  0  0
   12.6499    4.0124    0.0000 C   0  0  0  0  0  0  0  0  0  0  0  0
   15.0748    1.2124    0.0000 N   0  0  0  0  0  0  0  0  0  0  0  0
   16.2873    1.9124    0.0000 C   0  0  0  0  0  0  0  0  0  0  0  0
   16.2873    3.3124    0.0000 C   0  0  0  0  0  0  0  0  0  0  0  0
   15.0748    4.0124    0.0000 C   0  0  0  0  0  0  0  0  0  0  0  0
   10.2251    1.2124    0.0000 O   0  0  0  0  0  0  0  0  0  0  0  0
   10.2251    4.0124    0.0000 O   0  0  0  0  0  0  0  0  0  0  0  0
    9.0126    3.3124    0.0000 C   0  0  0  0  0  0  0  0  0  0  0  0
    9.0126    1.9124    0.0000 C   0  0  0  0  0  0  0  0  0  0  0  0
   15.0748    5.4124    0.0000 O   0  0  0  0  0  0  0  0  0  0  0  0
   16.2873    6.1124    0.0000 C   0  0  0  0  0  0  0  0  0  0  0  0
   17.4997    5.4124    0.0000 C   0  0  0  0  0  0  0  0  0  0  0  0
   18.7121    6.1124    0.0000 C   0  0  0  0  0  0  0  0  0  0  0  0
   18.7121    7.5124    0.0000 C   0  0  0  0  0  0  0  0  0  0  0  0
   17.4997    8.2124    0.0000 C   0  0  0  0  0  0  0  0  0  0  0  0
   16.2873    7.5124    0.0000 C   0  0  0  0  0  0  0  0  0  0  0  0
   20.0436    5.6798    0.0000 C   0  0  0  0  0  0  0  0  0  0  0  0
   20.8665    6.8124    0.0000 C   0  0  0  0  0  0  0  0  0  0  0  0
   20.0436    7.9451    0.0000 N   0  0  0  0  0  0  0  0  0  0  0  0
   22.2665    6.8124    0.0000 C   0  0  0  0  0  0  0  0  0  0  0  0
   17.4997    4.0124    0.0000 F   0  0  0  0  0  0  0  0  0  0  0  0
    7.8002    1.2124    0.0000 C   0  0  0  0  0  0  0  0  0  0  0  0
    6.4002    1.2124    0.0000 C   0  0  0  0  0  0  0  0  0  0  0  0
    7.1002    0.0000    0.0000 C   0  0  0  0  0  0  0  0  0  0  0  0
    8.7902    0.2225    0.0000 N   0  0  0  0  0  0  0  0  0  0  0  0
    9.7222   27.2730    0.0000 Cl  0  0  0  0  0  0  0  0  0  0  0  0
    0.0000   27.2730    0.0000 Cl  0  0  0  0  0  0  0  0  0  0  0  0
  1  2  2  0  0  0  0
  2  3  1  0  0  0  0
  3  4  2  0  0  0  0
  4  5  1  0  0  0  0
  5  6  2  0  0  0  0
  6  1  1  0  0  0  0
  4  7  1  0  0  0  0
  7  8  2  0  0  0  0
  8  9  1  0  0  0  0
  9 10  2  0  0  0  0
 10  5  1  0  0  0  0
  2 11  1  0  0  0  0
  1 12  1  0  0  0  0
 12 13  1  0  0  0  0
 11 14  1  0  0  0  0
 10 15  1  0  0  0  0
 15 16  1  0  0  0  0
 16 17  2  0  0  0  0
 17 18  1  0  0  0  0
 18 19  2  0  0  0  0
 19 20  1  0  0  0  0
 20 21  2  0  0  0  0
 21 16  1  0  0  0  0
 18 22  1  0  0  0  0
 22 23  2  0  0  0  0
 23 24  1  0  0  0  0
 24 19  1  0  0  0  0
 23 25  1  0  0  0  0
 17 26  1  0  0  0  0
 14 27  1  0  0  0  0
 27 28  1  0  0  0  0
 28 29  1  0  0  0  0
 29 27  1  0  0  0  0
 27 30  1  0  0  0  0
M  END
>  <Mol_ID> (700)
3844

>  <Formula> (700)
C23H24Cl2FN3O3

>  <MolWeight> (700)
480.3593632

>  <Cat> (700)
S8726

>  <Name> (700)
Anlotinib (AL3818) dihydrochloride

>  <Synonyms> (700)
N/A

>  <Target> (700)
VEGFR

>  <Form> (700)
dihydrochloride 

>  <CAS> (700)
1360460-82-7

>  <URL> (700)
http://selleckchem.com/products/anlotinib-al3818.html

$$$$
DCC-2618.cdx
csChFnd80/05071909292D

 36 40  0  0  0  0  0  0  0  0999 V2000
    4.8205    3.7834    0.0000 N   0  0  0  0  0  0  0  0  0  0  0  0
    4.8205    2.3834    0.0000 C   0  0  0  0  0  0  0  0  0  0  0  0
    6.0329    1.6834    0.0000 C   0  0  0  0  0  0  0  0  0  0  0  0
    7.2454    2.3834    0.0000 C   0  0  0  0  0  0  0  0  0  0  0  0
    7.2454    3.7834    0.0000 C   0  0  0  0  0  0  0  0  0  0  0  0
    6.0329    4.4834    0.0000 C   0  0  0  0  0  0  0  0  0  0  0  0
    3.6081    1.6834    0.0000 C   0  0  0  0  0  0  0  0  0  0  0  0
    8.4578    1.6834    0.0000 O   0  0  0  0  0  0  0  0  0  0  0  0
    9.6703    2.3834    0.0000 C   0  0  0  0  0  0  0  0  0  0  0  0
   10.8827    1.6834    0.0000 C   0  0  0  0  0  0  0  0  0  0  0  0
   12.0951    2.3834    0.0000 C   0  0  0  0  0  0  0  0  0  0  0  0
   12.0951    3.7834    0.0000 C   0  0  0  0  0  0  0  0  0  0  0  0
   10.8827    4.4834    0.0000 C   0  0  0  0  0  0  0  0  0  0  0  0
    9.6703    3.7834    0.0000 C   0  0  0  0  0  0  0  0  0  0  0  0
    8.4578    4.4834    0.0000 F   0  0  0  0  0  0  0  0  0  0  0  0
   13.3076    1.6834    0.0000 F   0  0  0  0  0  0  0  0  0  0  0  0
   13.3076    4.4834    0.0000 N   0  0  0  0  0  0  0  0  0  0  0  0
   14.5200    3.7834    0.0000 C   0  0  0  0  0  0  0  0  0  0  0  0
   15.7324    4.4834    0.0000 C   0  0  0  0  0  0  0  0  0  0  0  0
   14.5200    2.3834    0.0000 O   0  0  0  0  0  0  0  0  0  0  0  0
   16.9449    3.7834    0.0000 C   0  0  0  0  0  0  0  0  0  0  0  0
   18.1573    4.4834    0.0000 N   0  0  0  0  0  0  0  0  0  0  0  0
   16.9449    2.3834    0.0000 O   0  0  0  0  0  0  0  0  0  0  0  0
   19.3697    3.7834    0.0000 C   0  0  0  0  0  0  0  0  0  0  0  0
   19.3697    2.3834    0.0000 C   0  0  0  0  0  0  0  0  0  0  0  0
   20.5822    1.6834    0.0000 C   0  0  0  0  0  0  0  0  0  0  0  0
   21.7946    2.3834    0.0000 C   0  0  0  0  0  0  0  0  0  0  0  0
   21.7946    3.7834    0.0000 C   0  0  0  0  0  0  0  0  0  0  0  0
   20.5822    4.4834    0.0000 C   0  0  0  0  0  0  0  0  0  0  0  0
   16.4324    5.6958    0.0000 C   0  0  0  0  0  0  0  0  0  0  0  0
   15.0324    5.6958    0.0000 C   0  0  0  0  0  0  0  0  0  0  0  0
    2.3291    2.2528    0.0000 C   0  0  0  0  0  0  0  0  0  0  0  0
    1.3923    1.2124    0.0000 N   0  0  0  0  0  0  0  0  0  0  0  0
    2.0923    0.0000    0.0000 N   0  0  0  0  0  0  0  0  0  0  0  0
    3.4617    0.2911    0.0000 C   0  0  0  0  0  0  0  0  0  0  0  0
    0.0000    1.3588    0.0000 C   0  0  0  0  0  0  0  0  0  0  0  0
  1  2  2  0  0  0  0
  2  3  1  0  0  0  0
  3  4  2  0  0  0  0
  4  5  1  0  0  0  0
  5  6  2  0  0  0  0
  6  1  1  0  0  0  0
  2  7  1  0  0  0  0
  4  8  1  0  0  0  0
  8  9  1  0  0  0  0
  9 10  2  0  0  0  0
 10 11  1  0  0  0  0
 11 12  2  0  0  0  0
 12 13  1  0  0  0  0
 13 14  2  0  0  0  0
 14  9  1  0  0  0  0
 14 15  1  0  0  0  0
 11 16  1  0  0  0  0
 12 17  1  0  0  0  0
 17 18  1  0  0  0  0
 18 19  1  0  0  0  0
 18 20  2  0  0  0  0
 19 21  1  0  0  0  0
 21 22  1  0  0  0  0
 21 23  2  0  0  0  0
 22 24  1  0  0  0  0
 24 25  2  0  0  0  0
 25 26  1  0  0  0  0
 26 27  2  0  0  0  0
 27 28  1  0  0  0  0
 28 29  2  0  0  0  0
 29 24  1  0  0  0  0
 19 30  1  0  0  0  0
 30 31  1  0  0  0  0
 31 19  1  0  0  0  0
  7 32  2  0  0  0  0
 32 33  1  0  0  0  0
 33 34  1  0  0  0  0
 34 35  2  0  0  0  0
 35  7  1  0  0  0  0
 33 36  1  0  0  0  0
M  END
>  <Mol_ID> (701)
3845

>  <Formula> (701)
C26H21F2N5O3

>  <MolWeight> (701)
489.4734464

>  <Cat> (701)
S8721

>  <Name> (701)
DCC-2618

>  <Synonyms> (701)
N/A

>  <Target> (701)
c-Kit

>  <CAS> (701)
 1225278-16-9

>  <URL> (701)
http://selleckchem.com/products/dcc-2618.html

$$$$
FGF401.cdx
csChFnd80/05071909292D

 37 40  0  0  0  0  0  0  0  0999 V2000
    3.6373    4.2000    0.0000 C   0  0  0  0  0  0  0  0  0  0  0  0
    3.6373    2.8000    0.0000 C   0  0  0  0  0  0  0  0  0  0  0  0
    4.8497    2.1000    0.0000 C   0  0  0  0  0  0  0  0  0  0  0  0
    6.0622    2.8000    0.0000 C   0  0  0  0  0  0  0  0  0  0  0  0
    6.0622    4.2000    0.0000 N   0  0  0  0  0  0  0  0  0  0  0  0
    4.8497    4.9000    0.0000 C   0  0  0  0  0  0  0  0  0  0  0  0
    4.8497    0.7000    0.0000 C   0  0  0  0  0  0  0  0  0  0  0  0
    6.0622    0.0000    0.0000 C   0  0  0  0  0  0  0  0  0  0  0  0
    7.2746    0.7000    0.0000 C   0  0  0  0  0  0  0  0  0  0  0  0
    7.2746    2.1000    0.0000 N   0  0  0  0  0  0  0  0  0  0  0  0
    2.4249    4.9000    0.0000 C   0  0  0  0  0  0  0  0  0  0  0  0
    4.8497    6.3000    0.0000 C   0  0  0  0  0  0  0  0  0  0  0  0
    6.0622    7.0000    0.0000 O   0  0  0  0  0  0  0  0  0  0  0  0
    8.4870    2.8000    0.0000 C   0  0  0  0  0  0  0  0  0  0  0  0
    9.6995    2.1000    0.0000 O   0  0  0  0  0  0  0  0  0  0  0  0
    8.4870    4.2000    0.0000 N   0  0  0  0  0  0  0  0  0  0  0  0
    9.6995    4.9000    0.0000 C   0  0  0  0  0  0  0  0  0  0  0  0
   10.9119    4.2000    0.0000 C   0  0  0  0  0  0  0  0  0  0  0  0
   12.1244    4.9000    0.0000 C   0  0  0  0  0  0  0  0  0  0  0  0
   12.1244    6.3000    0.0000 C   0  0  0  0  0  0  0  0  0  0  0  0
   10.9119    7.0000    0.0000 C   0  0  0  0  0  0  0  0  0  0  0  0
    9.6995    6.3000    0.0000 N   0  0  0  0  0  0  0  0  0  0  0  0
    2.4249    6.3000    0.0000 N   0  0  0  0  0  0  0  0  0  0  0  0
    3.6373    7.0000    0.0000 C   0  0  0  0  0  0  0  0  0  0  0  0
    3.6373    8.4000    0.0000 C   0  0  0  0  0  0  0  0  0  0  0  0
    2.4249    9.1000    0.0000 N   0  0  0  0  0  0  0  0  0  0  0  0
    1.2124    8.4000    0.0000 C   0  0  0  0  0  0  0  0  0  0  0  0
    1.2124    7.0000    0.0000 C   0  0  0  0  0  0  0  0  0  0  0  0
    0.0000    6.3000    0.0000 O   0  0  0  0  0  0  0  0  0  0  0  0
    2.4249   10.5000    0.0000 C   0  0  0  0  0  0  0  0  0  0  0  0
   13.3368    7.0000    0.0000 C   0  0  0  0  0  0  0  0  0  0  0  0
   13.3368    4.2000    0.0000 N   0  0  0  0  0  0  0  0  0  0  0  0
   13.3368    2.8000    0.0000 C   0  0  0  0  0  0  0  0  0  0  0  0
   14.5492    2.1000    0.0000 C   0  0  0  0  0  0  0  0  0  0  0  0
   14.5492    0.7000    0.0000 O   0  0  0  0  0  0  0  0  0  0  0  0
   15.7617    0.0000    0.0000 C   0  0  0  0  0  0  0  0  0  0  0  0
   14.5478    7.7000    0.0000 N   0  0  0  0  0  0  0  0  0  0  0  0
  1  2  2  0  0  0  0
  2  3  1  0  0  0  0
  3  4  2  0  0  0  0
  4  5  1  0  0  0  0
  5  6  2  0  0  0  0
  6  1  1  0  0  0  0
  3  7  1  0  0  0  0
  7  8  1  0  0  0  0
  8  9  1  0  0  0  0
  9 10  1  0  0  0  0
 10  4  1  0  0  0  0
  1 11  1  0  0  0  0
  6 12  1  0  0  0  0
 12 13  2  0  0  0  0
 10 14  1  0  0  0  0
 14 15  2  0  0  0  0
 14 16  1  0  0  0  0
 16 17  1  0  0  0  0
 17 18  2  0  0  0  0
 18 19  1  0  0  0  0
 19 20  2  0  0  0  0
 20 21  1  0  0  0  0
 21 22  2  0  0  0  0
 22 17  1  0  0  0  0
 11 23  1  0  0  0  0
 23 24  1  0  0  0  0
 24 25  1  0  0  0  0
 25 26  1  0  0  0  0
 26 27  1  0  0  0  0
 27 28  1  0  0  0  0
 28 23  1  0  0  0  0
 28 29  2  0  0  0  0
 26 30  1  0  0  0  0
 20 31  1  0  0  0  0
 19 32  1  0  0  0  0
 32 33  1  0  0  0  0
 33 34  1  0  0  0  0
 34 35  1  0  0  0  0
 35 36  1  0  0  0  0
 31 37  3  0  0  0  0
M  END
>  <Mol_ID> (702)
3846

>  <Formula> (702)
C25H30N8O4

>  <MolWeight> (702)
506.5569

>  <Cat> (702)
S8548

>  <Name> (702)
FGF401

>  <Synonyms> (702)
N/A

>  <Target> (702)
FGFR

>  <Form> (702)
free base

>  <CAS> (702)
1708971-55-4

>  <URL> (702)
http://selleckchem.com/products/fgf401.html

$$$$
S5069 Dabrafenib Mesylate.cdx
csChFnd80/05071909292D

 40 42  0  0  0  0  0  0  0  0999 V2000
    0.0000    3.2777    0.0000 C   0  0  0  0  0  0  0  0  0  0  0  0
    0.0000    1.8777    0.0000 C   0  0  0  0  0  0  0  0  0  0  0  0
    1.2124    1.1777    0.0000 C   0  0  0  0  0  0  0  0  0  0  0  0
    2.4249    1.8777    0.0000 C   0  0  0  0  0  0  0  0  0  0  0  0
    2.4249    3.2777    0.0000 C   0  0  0  0  0  0  0  0  0  0  0  0
    3.6373    3.9777    0.0000 S   0  0  0  0  0  0  0  0  0  0  0  0
    3.6373    1.1777    0.0000 F   0  0  0  0  0  0  0  0  0  0  0  0
    1.2124    3.9777    0.0000 C   0  0  0  0  0  0  0  0  0  0  0  0
    1.2124    5.3777    0.0000 F   0  0  0  0  0  0  0  0  0  0  0  0
    2.9373    5.1901    0.0000 O   0  0  0  0  0  0  0  0  0  0  0  0
    4.3373    2.7652    0.0000 O   0  0  0  0  0  0  0  0  0  0  0  0
    4.8497    4.6777    0.0000 N   0  0  0  0  0  0  0  0  0  0  0  0
    6.0622    3.9777    0.0000 C   0  0  0  0  0  0  0  0  0  0  0  0
    6.0622    2.5777    0.0000 C   0  0  0  0  0  0  0  0  0  0  0  0
    7.2746    1.8777    0.0000 C   0  0  0  0  0  0  0  0  0  0  0  0
    8.4870    2.5777    0.0000 C   0  0  0  0  0  0  0  0  0  0  0  0
    8.4870    3.9777    0.0000 C   0  0  0  0  0  0  0  0  0  0  0  0
    7.2746    4.6777    0.0000 C   0  0  0  0  0  0  0  0  0  0  0  0
    7.2746    6.0777    0.0000 F   0  0  0  0  0  0  0  0  0  0  0  0
    9.6995    4.6777    0.0000 C   0  0  0  0  0  0  0  0  0  0  0  0
   10.9784    4.1082    0.0000 C   0  0  0  0  0  0  0  0  0  0  0  0
   11.9152    5.1486    0.0000 S   0  0  0  0  0  0  0  0  0  0  0  0
   11.2152    6.3611    0.0000 C   0  0  0  0  0  0  0  0  0  0  0  0
    9.8458    6.0700    0.0000 N   0  0  0  0  0  0  0  0  0  0  0  0
   11.7847    7.6400    0.0000 C   0  0  0  0  0  0  0  0  0  0  0  0
   13.1770    7.7864    0.0000 C   0  0  0  0  0  0  0  0  0  0  0  0
   12.1470    8.9923    0.0000 C   0  0  0  0  0  0  0  0  0  0  0  0
   10.7947    8.6300    0.0000 C   0  0  0  0  0  0  0  0  0  0  0  0
   11.2695    2.7388    0.0000 C   0  0  0  0  0  0  0  0  0  0  0  0
   10.2291    1.8020    0.0000 C   0  0  0  0  0  0  0  0  0  0  0  0
   10.5202    0.4326    0.0000 C   0  0  0  0  0  0  0  0  0  0  0  0
   11.8517    0.0000    0.0000 N   0  0  0  0  0  0  0  0  0  0  0  0
   12.8921    0.9368    0.0000 C   0  0  0  0  0  0  0  0  0  0  0  0
   12.6010    2.3062    0.0000 N   0  0  0  0  0  0  0  0  0  0  0  0
   14.2236    0.5042    0.0000 N   0  0  0  0  0  0  0  0  0  0  0  0
   15.7938    3.4356    0.0000 C   0  0  0  0  0  0  0  0  0  0  0  0
   17.1938    3.4356    0.0000 S   0  0  0  0  0  0  0  0  0  0  0  0
   17.1938    4.8356    0.0000 O   0  0  0  0  0  0  0  0  0  0  0  0
   18.5938    3.4356    0.0000 O   0  0  0  0  0  0  0  0  0  0  0  0
   17.1938    2.0356    0.0000 O   0  0  0  0  0  0  0  0  0  0  0  0
  1  2  2  0  0  0  0
  2  3  1  0  0  0  0
  3  4  2  0  0  0  0
  4  5  1  0  0  0  0
  5  8  2  0  0  0  0
  8  1  1  0  0  0  0
  5  6  1  0  0  0  0
  4  7  1  0  0  0  0
  8  9  1  0  0  0  0
  6 10  2  0  0  0  0
  6 11  2  0  0  0  0
  6 12  1  0  0  0  0
 12 13  1  0  0  0  0
 13 14  2  0  0  0  0
 14 15  1  0  0  0  0
 15 16  2  0  0  0  0
 16 17  1  0  0  0  0
 17 18  2  0  0  0  0
 18 13  1  0  0  0  0
 18 19  1  0  0  0  0
 17 20  1  0  0  0  0
 20 21  2  0  0  0  0
 21 22  1  0  0  0  0
 22 23  1  0  0  0  0
 23 24  2  0  0  0  0
 24 20  1  0  0  0  0
 23 25  1  0  0  0  0
 25 26  1  0  0  0  0
 25 27  1  0  0  0  0
 25 28  1  0  0  0  0
 21 29  1  0  0  0  0
 29 30  2  0  0  0  0
 30 31  1  0  0  0  0
 31 32  2  0  0  0  0
 32 33  1  0  0  0  0
 33 34  2  0  0  0  0
 34 29  1  0  0  0  0
 33 35  1  0  0  0  0
 36 37  1  0  0  0  0
 37 38  2  0  0  0  0
 37 39  1  0  0  0  0
 37 40  2  0  0  0  0
M  END
>  <Mol_ID> (703)
3866

>  <Formula> (703)
C24H24F3N5O5S3

>  <MolWeight> (703)
615.6680696

>  <Cat> (703)
S5069

>  <Name> (703)
Dabrafenib Mesylate

>  <Synonyms> (703)
GSK2118436 Mesylate

>  <Target> (703)
Raf

>  <Form> (703)
mesylate

>  <CAS> (703)
1195768-06-9

>  <URL> (703)
http://selleckchem.com/products/dabrafenib-mesylate.html

$$$$
S5234 Nintedanib Ethanesulfonate Salt.cdx
csChFnd80/05071909292D

 46 49  0  0  0  0  0  0  0  0999 V2000
    7.3937    1.6674    0.0000 N   0  0  0  0  0  0  0  0  0  0  0  0
    8.2166    2.8000    0.0000 C   0  0  0  0  0  0  0  0  0  0  0  0
    7.3937    3.9326    0.0000 C   0  0  0  0  0  0  0  0  0  0  0  0
    6.0622    3.5000    0.0000 C   0  0  0  0  0  0  0  0  0  0  0  0
    4.8497    4.2000    0.0000 C   0  0  0  0  0  0  0  0  0  0  0  0
    3.6373    3.5000    0.0000 C   0  0  0  0  0  0  0  0  0  0  0  0
    3.6373    2.1000    0.0000 C   0  0  0  0  0  0  0  0  0  0  0  0
    4.8497    1.4000    0.0000 C   0  0  0  0  0  0  0  0  0  0  0  0
    6.0622    2.1000    0.0000 C   0  0  0  0  0  0  0  0  0  0  0  0
    2.4249    1.4000    0.0000 C   0  0  0  0  0  0  0  0  0  0  0  0
    2.4249    0.0000    0.0000 O   0  0  0  0  0  0  0  0  0  0  0  0
    1.2124    2.1000    0.0000 O   0  0  0  0  0  0  0  0  0  0  0  0
    9.6166    2.8000    0.0000 O   0  0  0  0  0  0  0  0  0  0  0  0
    7.8263    5.2641    0.0000 C   0  0  0  0  0  0  0  0  0  0  0  0
    6.8363    6.2541    0.0000 C   0  0  0  0  0  0  0  0  0  0  0  0
    5.4840    5.8917    0.0000 C   0  0  0  0  0  0  0  0  0  0  0  0
    4.4941    6.8817    0.0000 C   0  0  0  0  0  0  0  0  0  0  0  0
    4.8564    8.2340    0.0000 C   0  0  0  0  0  0  0  0  0  0  0  0
    6.2087    8.5963    0.0000 C   0  0  0  0  0  0  0  0  0  0  0  0
    7.1987    7.6063    0.0000 C   0  0  0  0  0  0  0  0  0  0  0  0
    9.1957    5.5552    0.0000 N   0  0  0  0  0  0  0  0  0  0  0  0
    9.6283    6.8867    0.0000 C   0  0  0  0  0  0  0  0  0  0  0  0
    8.6915    7.9271    0.0000 C   0  0  0  0  0  0  0  0  0  0  0  0
    9.1242    9.2585    0.0000 C   0  0  0  0  0  0  0  0  0  0  0  0
   10.4936    9.5496    0.0000 C   0  0  0  0  0  0  0  0  0  0  0  0
   11.4303    8.5092    0.0000 C   0  0  0  0  0  0  0  0  0  0  0  0
   10.9977    7.1777    0.0000 C   0  0  0  0  0  0  0  0  0  0  0  0
   10.9262   10.8811    0.0000 N   0  0  0  0  0  0  0  0  0  0  0  0
   12.2956   11.1722    0.0000 C   0  0  0  0  0  0  0  0  0  0  0  0
   12.6579   12.5245    0.0000 O   0  0  0  0  0  0  0  0  0  0  0  0
   13.2855   10.1822    0.0000 C   0  0  0  0  0  0  0  0  0  0  0  0
   14.6378   10.5446    0.0000 N   0  0  0  0  0  0  0  0  0  0  0  0
   15.6278    9.5546    0.0000 C   0  0  0  0  0  0  0  0  0  0  0  0
   16.9801    9.9170    0.0000 C   0  0  0  0  0  0  0  0  0  0  0  0
   17.3424   11.2693    0.0000 N   0  0  0  0  0  0  0  0  0  0  0  0
   16.3525   12.2592    0.0000 C   0  0  0  0  0  0  0  0  0  0  0  0
   15.0002   11.8969    0.0000 C   0  0  0  0  0  0  0  0  0  0  0  0
   18.6947   11.6316    0.0000 C   0  0  0  0  0  0  0  0  0  0  0  0
    9.9362   11.8710    0.0000 C   0  0  0  0  0  0  0  0  0  0  0  0
    0.0000    1.4000    0.0000 C   0  0  0  0  0  0  0  0  0  0  0  0
   16.4689    4.7011    0.0000 C   0  0  0  0  0  0  0  0  0  0  0  0
   17.6813    4.0011    0.0000 C   0  0  0  0  0  0  0  0  0  0  0  0
   15.2565    4.0011    0.0000 S   0  0  0  0  0  0  0  0  0  0  0  0
   15.9565    2.7886    0.0000 O   0  0  0  0  0  0  0  0  0  0  0  0
   14.5565    5.2135    0.0000 O   0  0  0  0  0  0  0  0  0  0  0  0
   14.0440    3.3011    0.0000 O   0  0  0  0  0  0  0  0  0  0  0  0
  1  2  1  0  0  0  0
  2  3  1  0  0  0  0
  3  4  1  0  0  0  0
  4  5  1  0  0  0  0
  5  6  2  0  0  0  0
  6  7  1  0  0  0  0
  7  8  2  0  0  0  0
  8  9  1  0  0  0  0
  1  9  1  0  0  0  0
  4  9  2  0  0  0  0
 10 11  2  0  0  0  0
 10 12  1  0  0  0  0
  7 10  1  0  0  0  0
  2 13  2  0  0  0  0
 15 16  1  0  0  0  0
 16 17  2  0  0  0  0
 17 18  1  0  0  0  0
 18 19  2  0  0  0  0
 19 20  1  0  0  0  0
 15 20  2  0  0  0  0
 14 15  1  0  0  0  0
 22 23  1  0  0  0  0
 23 24  2  0  0  0  0
 24 25  1  0  0  0  0
 25 26  2  0  0  0  0
 26 27  1  0  0  0  0
 22 27  2  0  0  0  0
 29 30  2  0  0  0  0
 29 31  1  0  0  0  0
 32 33  1  0  0  0  0
 33 34  1  0  0  0  0
 34 35  1  0  0  0  0
 35 36  1  0  0  0  0
 36 37  1  0  0  0  0
 32 37  1  0  0  0  0
 35 38  1  0  0  0  0
 31 32  1  0  0  0  0
 28 29  1  0  0  0  0
 28 39  1  0  0  0  0
 25 28  1  0  0  0  0
 21 22  1  0  0  0  0
 14 21  1  0  0  0  0
  3 14  2  0  0  0  0
 12 40  1  0  0  0  0
 41 42  1  0  0  0  0
 43 44  2  0  0  0  0
 43 45  2  0  0  0  0
 43 46  1  0  0  0  0
 41 43  1  0  0  0  0
M  END
>  <Mol_ID> (704)
3884

>  <Formula> (704)
C33H39N5O7S

>  <MolWeight> (704)
649.75706

>  <Cat> (704)
S5234

>  <Name> (704)
Nintedanib Ethanesulfonate Salt

>  <Synonyms> (704)
Intedanib, BIBF 1120

>  <Target> (704)
VEGFR,FGFR,PDGFR

>  <Form> (704)
ethanesulfonate 

>  <CAS> (704)
656247-18-6

>  <URL> (704)
http://selleckchem.com/products/nintedanib-ethanesulfonate-salt.html

$$$$
S5242 Cediranib Maleate.cdx
csChFnd80/05071909292D

 41 44  0  0  0  0  0  0  0  0999 V2000
   10.8290    3.6882    0.0000 N   0  0  0  0  0  0  0  0  0  0  0  0
    9.6166    2.9882    0.0000 C   0  0  0  0  0  0  0  0  0  0  0  0
    8.4041    3.6882    0.0000 N   0  0  0  0  0  0  0  0  0  0  0  0
    8.4041    5.0882    0.0000 C   0  0  0  0  0  0  0  0  0  0  0  0
    9.6166    5.7882    0.0000 C   0  0  0  0  0  0  0  0  0  0  0  0
    9.6166    7.1882    0.0000 C   0  0  0  0  0  0  0  0  0  0  0  0
   10.8290    7.8882    0.0000 C   0  0  0  0  0  0  0  0  0  0  0  0
   12.0414    7.1882    0.0000 C   0  0  0  0  0  0  0  0  0  0  0  0
   12.0414    5.7882    0.0000 C   0  0  0  0  0  0  0  0  0  0  0  0
   10.8290    5.0882    0.0000 C   0  0  0  0  0  0  0  0  0  0  0  0
   13.2539    7.8882    0.0000 O   0  0  0  0  0  0  0  0  0  0  0  0
   14.4663    7.1882    0.0000 C   0  0  0  0  0  0  0  0  0  0  0  0
   15.6787    7.8882    0.0000 C   0  0  0  0  0  0  0  0  0  0  0  0
   16.8912    7.1882    0.0000 C   0  0  0  0  0  0  0  0  0  0  0  0
   18.1036    7.8882    0.0000 N   0  0  0  0  0  0  0  0  0  0  0  0
   18.2500    9.2806    0.0000 C   0  0  0  0  0  0  0  0  0  0  0  0
   19.6194    9.5717    0.0000 C   0  0  0  0  0  0  0  0  0  0  0  0
   20.3194    8.3592    0.0000 C   0  0  0  0  0  0  0  0  0  0  0  0
   19.3826    7.3188    0.0000 C   0  0  0  0  0  0  0  0  0  0  0  0
   10.8290    9.2882    0.0000 O   0  0  0  0  0  0  0  0  0  0  0  0
   12.0414    9.9882    0.0000 C   0  0  0  0  0  0  0  0  0  0  0  0
    7.1917    5.7882    0.0000 O   0  0  0  0  0  0  0  0  0  0  0  0
    2.2229    3.2556    0.0000 N   0  0  0  0  0  0  0  0  0  0  0  0
    1.4000    4.3882    0.0000 C   0  0  0  0  0  0  0  0  0  0  0  0
    2.2229    5.5209    0.0000 C   0  0  0  0  0  0  0  0  0  0  0  0
    3.5544    5.0882    0.0000 C   0  0  0  0  0  0  0  0  0  0  0  0
    4.7668    5.7882    0.0000 C   0  0  0  0  0  0  0  0  0  0  0  0
    5.9792    5.0882    0.0000 C   0  0  0  0  0  0  0  0  0  0  0  0
    5.9792    3.6882    0.0000 C   0  0  0  0  0  0  0  0  0  0  0  0
    4.7668    2.9882    0.0000 C   0  0  0  0  0  0  0  0  0  0  0  0
    3.5544    3.6882    0.0000 C   0  0  0  0  0  0  0  0  0  0  0  0
    0.0000    4.3882    0.0000 C   0  0  0  0  0  0  0  0  0  0  0  0
    4.7668    7.1882    0.0000 F   0  0  0  0  0  0  0  0  0  0  0  0
   16.7509    3.4927    0.0000 C   0  0  0  0  0  0  0  0  0  0  0  0
   17.9633    4.1927    0.0000 C   0  0  0  0  0  0  0  0  0  0  0  0
   16.7509    2.0927    0.0000 C   0  0  0  0  0  0  0  0  0  0  0  0
   17.9591    1.3951    0.0000 C   0  0  0  0  0  0  0  0  0  0  0  0
   17.9633    5.5879    0.0000 O   0  0  0  0  0  0  0  0  0  0  0  0
   19.1715    3.4951    0.0000 O   0  0  0  0  0  0  0  0  0  0  0  0
   17.9591    0.0000    0.0000 O   0  0  0  0  0  0  0  0  0  0  0  0
   19.1673    2.0927    0.0000 O   0  0  0  0  0  0  0  0  0  0  0  0
  1  2  1  0  0  0  0
  2  3  2  0  0  0  0
  3  4  1  0  0  0  0
  4  5  2  0  0  0  0
  5  6  1  0  0  0  0
  6  7  2  0  0  0  0
  7  8  1  0  0  0  0
  8  9  2  0  0  0  0
  9 10  1  0  0  0  0
  1 10  2  0  0  0  0
  5 10  1  0  0  0  0
 12 13  1  0  0  0  0
 13 14  1  0  0  0  0
 11 12  1  0  0  0  0
 15 16  1  0  0  0  0
 16 17  1  0  0  0  0
 17 18  1  0  0  0  0
 18 19  1  0  0  0  0
 15 19  1  0  0  0  0
 14 15  1  0  0  0  0
  8 11  1  0  0  0  0
 20 21  1  0  0  0  0
  7 20  1  0  0  0  0
 23 24  1  0  0  0  0
 24 25  2  0  0  0  0
 25 26  1  0  0  0  0
 26 27  1  0  0  0  0
 27 28  2  0  0  0  0
 28 29  1  0  0  0  0
 29 30  2  0  0  0  0
 30 31  1  0  0  0  0
 23 31  1  0  0  0  0
 26 31  2  0  0  0  0
 24 32  1  0  0  0  0
 27 33  1  0  0  0  0
 22 28  1  0  0  0  0
  4 22  1  0  0  0  0
 34 35  1  0  0  0  0
 34 36  2  0  0  0  0
 36 37  1  0  0  0  0
 35 38  2  0  0  0  0
 35 39  1  0  0  0  0
 37 40  2  0  0  0  0
 37 41  1  0  0  0  0
M  END
>  <Mol_ID> (705)
3886

>  <Formula> (705)
C29H31FN4O7

>  <MolWeight> (705)
566.5774432

>  <Cat> (705)
S5242

>  <Name> (705)
Cediranib Maleate

>  <Synonyms> (705)
AZD-2171 maleate

>  <Target> (705)
VEGFR

>  <Form> (705)
maleate

>  <CAS> (705)
 857036-77-2

>  <URL> (705)
http://selleckchem.com/products/cediranib-maleate.html

$$$$
S5248 Apatinib.cdx
csChFnd80/05071909292D

 30 33  0  0  0  0  0  0  0  0999 V2000
    3.6340    4.8977    0.0000 C   0  0  0  0  0  0  0  0  0  0  0  0
    2.4215    4.1977    0.0000 C   0  0  0  0  0  0  0  0  0  0  0  0
    1.2069    4.8989    0.0000 C   0  0  0  0  0  0  0  0  0  0  0  0
    0.0000    4.2021    0.0000 C   0  0  0  0  0  0  0  0  0  0  0  0
    0.0000    2.8106    0.0000 C   0  0  0  0  0  0  0  0  0  0  0  0
    1.2045    2.1152    0.0000 N   0  0  0  0  0  0  0  0  0  0  0  0
    2.4082    2.8102    0.0000 C   0  0  0  0  0  0  0  0  0  0  0  0
    3.6340    6.2951    0.0000 O   0  0  0  0  0  0  0  0  0  0  0  0
    4.8486    4.1964    0.0000 N   0  0  0  0  0  0  0  0  0  0  0  0
    3.6294    2.1051    0.0000 N   0  0  0  0  0  0  0  0  0  0  0  0
    4.8329    2.8000    0.0000 C   0  0  0  0  0  0  0  0  0  0  0  0
    6.0555    4.8931    0.0000 C   0  0  0  0  0  0  0  0  0  0  0  0
    6.0555    6.2836    0.0000 C   0  0  0  0  0  0  0  0  0  0  0  0
    7.2762    6.9883    0.0000 C   0  0  0  0  0  0  0  0  0  0  0  0
    8.5005    6.2815    0.0000 C   0  0  0  0  0  0  0  0  0  0  0  0
    8.5005    4.8714    0.0000 C   0  0  0  0  0  0  0  0  0  0  0  0
    7.2786    4.1659    0.0000 C   0  0  0  0  0  0  0  0  0  0  0  0
    9.7035    6.9760    0.0000 C   0  0  0  0  0  0  0  0  0  0  0  0
   10.2336    5.7503    0.0000 C   0  0  0  0  0  0  0  0  0  0  0  0
   11.6243    5.8895    0.0000 C   0  0  0  0  0  0  0  0  0  0  0  0
   11.9267    7.2599    0.0000 C   0  0  0  0  0  0  0  0  0  0  0  0
   10.7149    7.9596    0.0000 C   0  0  0  0  0  0  0  0  0  0  0  0
    8.8551    8.1042    0.0000 C   0  0  0  0  0  0  0  0  0  0  0  0
    8.0125    9.2223    0.0000 N   0  0  0  0  0  0  0  0  0  0  0  0
    6.0454    2.1000    0.0000 C   0  0  0  0  0  0  0  0  0  0  0  0
    6.0454    0.7000    0.0000 C   0  0  0  0  0  0  0  0  0  0  0  0
    7.2578    0.0000    0.0000 C   0  0  0  0  0  0  0  0  0  0  0  0
    8.4703    0.7000    0.0000 N   0  0  0  0  0  0  0  0  0  0  0  0
    8.4703    2.1000    0.0000 C   0  0  0  0  0  0  0  0  0  0  0  0
    7.2578    2.8000    0.0000 C   0  0  0  0  0  0  0  0  0  0  0  0
  1  2  1  0  0  0  0
  2  3  1  0  0  0  0
  3  4  2  0  0  0  0
  4  5  1  0  0  0  0
  5  6  2  0  0  0  0
  6  7  1  0  0  0  0
  2  7  2  0  0  0  0
  1  8  2  0  0  0  0
  1  9  1  0  0  0  0
 10 11  1  0  0  0  0
  7 10  1  0  0  0  0
 12 13  1  0  0  0  0
 13 14  2  0  0  0  0
 14 15  1  0  0  0  0
 15 16  2  0  0  0  0
 16 17  1  0  0  0  0
 12 17  2  0  0  0  0
 18 19  1  0  0  0  0
 19 20  1  0  0  0  0
 20 21  1  0  0  0  0
 21 22  1  0  0  0  0
 18 22  1  0  0  0  0
 23 24  3  0  0  0  0
 18 23  1  0  0  0  0
 15 18  1  0  0  0  0
  9 12  1  0  0  0  0
 11 25  1  0  0  0  0
 25 26  2  0  0  0  0
 26 27  1  0  0  0  0
 27 28  2  0  0  0  0
 28 29  1  0  0  0  0
 29 30  2  0  0  0  0
 30 25  1  0  0  0  0
M  END
>  <Mol_ID> (706)
3887

>  <Formula> (706)
C24H23N5O

>  <MolWeight> (706)
397.47232

>  <Cat> (706)
S5248

>  <Name> (706)
Apatinib

>  <Synonyms> (706)
YN968D1

>  <Target> (706)
VEGFR,c-RET

>  <Form> (706)
free base

>  <CAS> (706)
811803-05-1

>  <URL> (706)
http://selleckchem.com/products/apatinib.html

$$$$
S5439 5-Bromoindole.cdx
csChFnd80/05071909292D

 10 11  0  0  0  0  0  0  0  0999 V2000
    3.6292    0.6953    0.0000 C   0  0  0  0  0  0  0  0  0  0  0  0
    3.6346    2.0953    0.0000 C   0  0  0  0  0  0  0  0  0  0  0  0
    4.9590    0.2576    0.0000 N   0  0  0  0  0  0  0  0  0  0  0  0
    2.4140    0.0000    0.0000 C   0  0  0  0  0  0  0  0  0  0  0  0
    2.4249    2.8000    0.0000 C   0  0  0  0  0  0  0  0  0  0  0  0
    4.9677    2.5228    0.0000 C   0  0  0  0  0  0  0  0  0  0  0  0
    5.7862    1.3870    0.0000 C   0  0  0  0  0  0  0  0  0  0  0  0
    1.2043    0.7047    0.0000 C   0  0  0  0  0  0  0  0  0  0  0  0
    1.2097    2.1047    0.0000 C   0  0  0  0  0  0  0  0  0  0  0  0
    0.0000    2.8093    0.0000 Br  0  0  0  0  0  0  0  0  0  0  0  0
  1  2  2  0  0  0  0
  1  3  1  0  0  0  0
  1  4  1  0  0  0  0
  2  5  1  0  0  0  0
  2  6  1  0  0  0  0
  3  7  1  0  0  0  0
  4  8  2  0  0  0  0
  5  9  2  0  0  0  0
  6  7  2  0  0  0  0
  8  9  1  0  0  0  0
  9 10  1  0  0  0  0
M  END
>  <Mol_ID> (707)
3936

>  <Formula> (707)
C8H6BrN

>  <MolWeight> (707)
196.04394

>  <Cat> (707)
S5439

>  <Name> (707)
5-Bromoindole

>  <Synonyms> (707)
N/A

>  <Target> (707)
GSK-3

>  <Form> (707)
free base

>  <CAS> (707)
10075-50-0

>  <URL> (707)
http://selleckchem.com/products/5-bromoindole.html

$$$$
S5458 Verbascoside.cdx
csChFnd80/05071909292D

 44 47  0  0  0  0  0  0  0  0999 V2000
    7.2746    7.7088    0.0000 C   0  0  0  0  0  0  0  0  0  0  0  0
    6.0622    8.4088    0.0000 C   0  0  0  0  0  0  0  0  0  0  0  0
    4.8497    7.7088    0.0000 C   0  0  0  0  0  0  0  0  0  0  0  0
    7.2746    6.3088    0.0000 O   0  0  0  0  0  0  0  0  0  0  0  0
    8.4871    8.4088    0.0000 O   0  0  0  0  0  0  0  0  0  0  0  0
    3.6373    8.4088    0.0000 C   0  0  0  0  0  0  0  0  0  0  0  0
    2.4249    7.7088    0.0000 C   0  0  0  0  0  0  0  0  0  0  0  0
    1.2124    8.4088    0.0000 C   0  0  0  0  0  0  0  0  0  0  0  0
    1.2124    9.8088    0.0000 C   0  0  0  0  0  0  0  0  0  0  0  0
    2.4249   10.5088    0.0000 C   0  0  0  0  0  0  0  0  0  0  0  0
    3.6373    9.8088    0.0000 C   0  0  0  0  0  0  0  0  0  0  0  0
    0.0000   10.5088    0.0000 O   0  0  0  0  0  0  0  0  0  0  0  0
    0.0000    7.7088    0.0000 O   0  0  0  0  0  0  0  0  0  0  0  0
   12.1258    7.7083    0.0000 O   0  0  0  0  0  0  0  0  0  0  0  0
   10.9122    8.4089    0.0000 C   0  0  1  0  0  0  0  0  0  0  0  0
    9.6995    7.7088    0.0000 C   0  0  2  0  0  0  0  0  0  0  0  0
    9.6995    6.3081    0.0000 C   0  0  1  0  0  0  0  0  0  0  0  0
   10.9127    5.6077    0.0000 C   0  0  2  0  0  0  0  0  0  0  0  0
   12.1259    6.3082    0.0000 C   0  0  2  0  0  0  0  0  0  0  0  0
    8.4868    5.6080    0.0000 O   0  0  0  0  0  0  0  0  0  0  0  0
    9.6985    3.5085    0.0000 O   0  0  0  0  0  0  0  0  0  0  0  0
    8.4868    4.2081    0.0000 C   0  0  2  0  0  0  0  0  0  0  0  0
    7.2685    3.5047    0.0000 C   0  0  1  0  0  0  0  0  0  0  0  0
    7.2685    2.0984    0.0000 C   0  0  1  0  0  0  0  0  0  0  0  0
    8.4837    1.3968    0.0000 C   0  0  2  0  0  0  0  0  0  0  0  0
    9.6956    2.0965    0.0000 C   0  0  2  0  0  0  0  0  0  0  0  0
   10.9036    1.3990    0.0000 C   0  0  0  0  0  0  0  0  0  0  0  0
    8.4837    0.0000    0.0000 O   0  0  0  0  0  0  0  0  0  0  0  0
    6.0591    1.4001    0.0000 O   0  0  0  0  0  0  0  0  0  0  0  0
    6.0592    4.2029    0.0000 O   0  0  0  0  0  0  0  0  0  0  0  0
   10.9122    9.8082    0.0000 C   0  0  0  0  0  0  0  0  0  0  0  0
    9.7002   10.5080    0.0000 O   0  0  0  0  0  0  0  0  0  0  0  0
   10.9127    4.2077    0.0000 O   0  0  0  0  0  0  0  0  0  0  0  0
   13.3387    5.6080    0.0000 O   0  0  0  0  0  0  0  0  0  0  0  0
   14.5510    6.3078    0.0000 C   0  0  0  0  0  0  0  0  0  0  0  0
   15.7635    5.6078    0.0000 C   0  0  0  0  0  0  0  0  0  0  0  0
   16.9759    6.3078    0.0000 C   0  0  0  0  0  0  0  0  0  0  0  0
   18.1883    5.6078    0.0000 C   0  0  0  0  0  0  0  0  0  0  0  0
   19.3993    6.3069    0.0000 C   0  0  0  0  0  0  0  0  0  0  0  0
   19.3993    7.7053    0.0000 C   0  0  0  0  0  0  0  0  0  0  0  0
   18.1886    8.4043    0.0000 C   0  0  0  0  0  0  0  0  0  0  0  0
   16.9782    7.7055    0.0000 C   0  0  0  0  0  0  0  0  0  0  0  0
   20.6138    8.4065    0.0000 O   0  0  0  0  0  0  0  0  0  0  0  0
   20.6133    5.6060    0.0000 O   0  0  0  0  0  0  0  0  0  0  0  0
  1  2  1  0  0  0  0
  2  3  2  0  0  0  0
  1  4  2  0  0  0  0
  1  5  1  0  0  0  0
  6  7  1  0  0  0  0
  7  8  2  0  0  0  0
  8  9  1  0  0  0  0
  9 10  2  0  0  0  0
 10 11  1  0  0  0  0
  6 11  2  0  0  0  0
  9 12  1  0  0  0  0
  8 13  1  0  0  0  0
  3  6  1  0  0  0  0
 14 15  1  0  0  0  0
 15 16  1  0  0  0  0
 16 17  1  0  0  0  0
 17 18  1  0  0  0  0
 18 19  1  0  0  0  0
 14 19  1  0  0  0  0
 21 22  1  0  0  0  0
 22 23  1  0  0  0  0
 23 24  1  0  0  0  0
 24 25  1  0  0  0  0
 25 26  1  0  0  0  0
 21 26  1  0  0  0  0
 26 27  1  1  0  0  0
 25 28  1  6  0  0  0
 24 29  1  1  0  0  0
 23 30  1  1  0  0  0
 22 20  1  6  0  0  0
 17 20  1  1  0  0  0
 31 32  1  0  0  0  0
 15 31  1  1  0  0  0
 18 33  1  6  0  0  0
 35 36  1  0  0  0  0
 34 35  1  0  0  0  0
 37 38  1  0  0  0  0
 38 39  2  0  0  0  0
 39 40  1  0  0  0  0
 40 41  2  0  0  0  0
 41 42  1  0  0  0  0
 37 42  2  0  0  0  0
 40 43  1  0  0  0  0
 39 44  1  0  0  0  0
 36 37  1  0  0  0  0
 19 34  1  1  0  0  0
 16  5  1  6  0  0  0
M  END
>  <Mol_ID> (708)
3948

>  <Formula> (708)
C29H36O15

>  <MolWeight> (708)
624.58714

>  <Cat> (708)
S5458

>  <Name> (708)
Verbascoside

>  <Synonyms> (708)
Acteoside, Kusaginin

>  <Target> (708)
Immunology & Inflammation related

>  <Form> (708)
free base

>  <CAS> (708)
61276-17-3

>  <URL> (708)
http://selleckchem.com/products/verbascoside.html

$$$$
S5464 Psoralidin.cdx
csChFnd80/05071909292D

 25 28  0  0  0  0  0  0  0  0999 V2000
    4.8497    2.0998    0.0000 C   0  0  0  0  0  0  0  0  0  0  0  0
    4.8497    0.7000    0.0000 C   0  0  0  0  0  0  0  0  0  0  0  0
    6.0567    0.0031    0.0000 C   0  0  0  0  0  0  0  0  0  0  0  0
    6.0615    2.7994    0.0000 C   0  0  0  0  0  0  0  0  0  0  0  0
    7.2680    2.1028    0.0000 C   0  0  0  0  0  0  0  0  0  0  0  0
    7.2618    0.6989    0.0000 C   0  0  0  0  0  0  0  0  0  0  0  0
    8.4674    0.0029    0.0000 O   0  0  0  0  0  0  0  0  0  0  0  0
    9.6759    0.7006    0.0000 C   0  0  0  0  0  0  0  0  0  0  0  0
    8.4752    2.7998    0.0000 C   0  0  0  0  0  0  0  0  0  0  0  0
    9.6759    2.0977    0.0000 C   0  0  0  0  0  0  0  0  0  0  0  0
    8.7689    4.1653    0.0000 O   0  0  0  0  0  0  0  0  0  0  0  0
   10.1572    4.3068    0.0000 C   0  0  0  0  0  0  0  0  0  0  0  0
   10.7210    3.0225    0.0000 C   0  0  0  0  0  0  0  0  0  0  0  0
   12.1086    2.8674    0.0000 C   0  0  0  0  0  0  0  0  0  0  0  0
   12.9417    3.9951    0.0000 C   0  0  0  0  0  0  0  0  0  0  0  0
   12.3787    5.2806    0.0000 C   0  0  0  0  0  0  0  0  0  0  0  0
   10.9821    5.4382    0.0000 C   0  0  0  0  0  0  0  0  0  0  0  0
   10.8884    0.0006    0.0000 O   0  0  0  0  0  0  0  0  0  0  0  0
    3.6373    0.0000    0.0000 O   0  0  0  0  0  0  0  0  0  0  0  0
   13.2093    6.4076    0.0000 O   0  0  0  0  0  0  0  0  0  0  0  0
    3.6373    2.7998    0.0000 C   0  0  0  0  0  0  0  0  0  0  0  0
    2.4249    2.0998    0.0000 C   0  0  0  0  0  0  0  0  0  0  0  0
    1.2124    2.7998    0.0000 C   0  0  0  0  0  0  0  0  0  0  0  0
    0.0000    2.0998    0.0000 C   0  0  0  0  0  0  0  0  0  0  0  0
    1.2124    4.1998    0.0000 C   0  0  0  0  0  0  0  0  0  0  0  0
  1  2  1  0  0  0  0
  1  4  2  0  0  0  0
  1 21  1  0  0  0  0
  2  3  2  0  0  0  0
  2 19  1  0  0  0  0
  3  6  1  0  0  0  0
  5  4  1  0  0  0  0
  5  9  1  0  0  0  0
  5  6  2  0  0  0  0
  6  7  1  0  0  0  0
  7  8  1  0  0  0  0
  8 18  2  0  0  0  0
  8 10  1  0  0  0  0
 11  9  1  0  0  0  0
  9 10  2  0  0  0  0
 10 13  1  0  0  0  0
 12 11  1  0  0  0  0
 12 13  2  0  0  0  0
 12 17  1  0  0  0  0
 13 14  1  0  0  0  0
 14 15  2  0  0  0  0
 15 16  1  0  0  0  0
 16 17  2  0  0  0  0
 16 20  1  0  0  0  0
 21 22  1  0  0  0  0
 22 23  2  0  0  0  0
 23 24  1  0  0  0  0
 23 25  1  0  0  0  0
M  END
>  <Mol_ID> (709)
3954

>  <Formula> (709)
C20H16O5

>  <MolWeight> (709)
336.33804

>  <Cat> (709)
S5464

>  <Name> (709)
Psoralidin

>  <Synonyms> (709)
N/A

>  <Target> (709)
Estrogen/progestogen Receptor

>  <Form> (709)
free base

>  <CAS> (709)
18642-23-4

>  <URL> (709)
http://selleckchem.com/products/psoralidin.html

$$$$
UM-164.cdx
csChFnd80/05071909292D

 45 49  0  0  0  0  0  0  0  0999 V2000
    7.2746    4.8418    0.0000 C   0  0  0  0  0  0  0  0  0  0  0  0
    7.2746    3.4418    0.0000 C   0  0  0  0  0  0  0  0  0  0  0  0
    8.4870    2.7418    0.0000 N   0  0  0  0  0  0  0  0  0  0  0  0
    9.6995    3.4418    0.0000 C   0  0  0  0  0  0  0  0  0  0  0  0
    9.6995    4.8418    0.0000 N   0  0  0  0  0  0  0  0  0  0  0  0
    8.4870    5.5418    0.0000 C   0  0  0  0  0  0  0  0  0  0  0  0
    6.0622    2.7418    0.0000 N   0  0  0  0  0  0  0  0  0  0  0  0
   10.9119    2.7418    0.0000 C   0  0  0  0  0  0  0  0  0  0  0  0
    8.4870    6.9418    0.0000 N   0  0  0  0  0  0  0  0  0  0  0  0
    9.6995    7.6418    0.0000 C   0  0  0  0  0  0  0  0  0  0  0  0
   10.9784    7.0724    0.0000 S   0  0  0  0  0  0  0  0  0  0  0  0
   11.9152    8.1128    0.0000 C   0  0  0  0  0  0  0  0  0  0  0  0
   11.2152    9.3252    0.0000 C   0  0  0  0  0  0  0  0  0  0  0  0
    9.8458    9.0342    0.0000 N   0  0  0  0  0  0  0  0  0  0  0  0
   13.3076    7.9665    0.0000 C   0  0  0  0  0  0  0  0  0  0  0  0
   14.1305    9.0991    0.0000 N   0  0  0  0  0  0  0  0  0  0  0  0
   13.8770    6.6875    0.0000 O   0  0  0  0  0  0  0  0  0  0  0  0
   15.5228    8.9527    0.0000 C   0  0  0  0  0  0  0  0  0  0  0  0
   16.0922    7.6738    0.0000 C   0  0  0  0  0  0  0  0  0  0  0  0
   17.4846    7.5274    0.0000 C   0  0  0  0  0  0  0  0  0  0  0  0
   18.3075    8.6601    0.0000 C   0  0  0  0  0  0  0  0  0  0  0  0
   17.7380    9.9390    0.0000 C   0  0  0  0  0  0  0  0  0  0  0  0
   16.3457   10.0854    0.0000 C   0  0  0  0  0  0  0  0  0  0  0  0
   18.0540    6.2485    0.0000 N   0  0  0  0  0  0  0  0  0  0  0  0
   15.7763   11.3643    0.0000 C   0  0  0  0  0  0  0  0  0  0  0  0
   19.4463    6.1021    0.0000 C   0  0  0  0  0  0  0  0  0  0  0  0
   20.0157    4.8232    0.0000 C   0  0  0  0  0  0  0  0  0  0  0  0
   20.2692    7.2348    0.0000 O   0  0  0  0  0  0  0  0  0  0  0  0
   19.1928    3.6906    0.0000 C   0  0  0  0  0  0  0  0  0  0  0  0
   19.7623    2.4116    0.0000 C   0  0  0  0  0  0  0  0  0  0  0  0
   21.1546    2.2652    0.0000 C   0  0  0  0  0  0  0  0  0  0  0  0
   21.9775    3.3979    0.0000 C   0  0  0  0  0  0  0  0  0  0  0  0
   21.4081    4.6768    0.0000 C   0  0  0  0  0  0  0  0  0  0  0  0
   18.9394    1.2790    0.0000 C   0  0  0  0  0  0  0  0  0  0  0  0
    4.8497    3.4418    0.0000 C   0  0  0  0  0  0  0  0  0  0  0  0
    3.6373    2.7418    0.0000 C   0  0  0  0  0  0  0  0  0  0  0  0
    3.6373    1.3418    0.0000 N   0  0  0  0  0  0  0  0  0  0  0  0
    4.8497    0.6418    0.0000 C   0  0  0  0  0  0  0  0  0  0  0  0
    6.0622    1.3418    0.0000 C   0  0  0  0  0  0  0  0  0  0  0  0
    2.4249    0.6418    0.0000 C   0  0  0  0  0  0  0  0  0  0  0  0
    1.2124    1.3418    0.0000 C   0  0  0  0  0  0  0  0  0  0  0  0
    0.0000    0.6418    0.0000 O   0  0  0  0  0  0  0  0  0  0  0  0
   19.5088    0.0000    0.0000 F   0  0  0  0  0  0  0  0  0  0  0  0
   17.5470    1.4253    0.0000 F   0  0  0  0  0  0  0  0  0  0  0  0
   17.9494    0.2890    0.0000 F   0  0  0  0  0  0  0  0  0  0  0  0
  1  2  2  0  0  0  0
  2  3  1  0  0  0  0
  3  4  2  0  0  0  0
  4  5  1  0  0  0  0
  5  6  2  0  0  0  0
  6  1  1  0  0  0  0
  2  7  1  0  0  0  0
  4  8  1  0  0  0  0
  6  9  1  0  0  0  0
  9 10  1  0  0  0  0
 10 11  1  0  0  0  0
 11 12  1  0  0  0  0
 12 13  2  0  0  0  0
 13 14  1  0  0  0  0
 14 10  2  0  0  0  0
 12 15  1  0  0  0  0
 15 16  1  0  0  0  0
 15 17  2  0  0  0  0
 16 18  1  0  0  0  0
 18 19  2  0  0  0  0
 19 20  1  0  0  0  0
 20 21  2  0  0  0  0
 21 22  1  0  0  0  0
 22 23  2  0  0  0  0
 23 18  1  0  0  0  0
 20 24  1  0  0  0  0
 23 25  1  0  0  0  0
 24 26  1  0  0  0  0
 26 27  1  0  0  0  0
 26 28  2  0  0  0  0
 27 29  2  0  0  0  0
 29 30  1  0  0  0  0
 30 31  2  0  0  0  0
 31 32  1  0  0  0  0
 32 33  2  0  0  0  0
 33 27  1  0  0  0  0
 30 34  1  0  0  0  0
  7 35  1  0  0  0  0
 35 36  1  0  0  0  0
 36 37  1  0  0  0  0
 37 38  1  0  0  0  0
 38 39  1  0  0  0  0
 39  7  1  0  0  0  0
 37 40  1  0  0  0  0
 40 41  1  0  0  0  0
 41 42  1  0  0  0  0
 34 43  1  0  0  0  0
 34 44  1  0  0  0  0
 34 45  1  0  0  0  0
M  END
>  <Mol_ID> (710)
4038

>  <Formula> (710)
C30H31F3N8O3S

>  <MolWeight> (710)
640.6791496

>  <Cat> (710)
S8706

>  <Name> (710)
UM-164

>  <Synonyms> (710)
N/A

>  <Target> (710)
Src,p38 MAPK

>  <Form> (710)
free base

>  <CAS> (710)
903564-48-7

>  <URL> (710)
http://selleckchem.com/products/um-164.html

$$$$
S5205 Nilotinib  hydrochloride.cdx
csChFnd80/05071909292D

 40 43  0  0  0  0  0  0  0  0999 V2000
   12.1246    2.7998    0.0000 C   0  0  0  0  0  0  0  0  0  0  0  0
   10.9121    2.0998    0.0000 C   0  0  0  0  0  0  0  0  0  0  0  0
    9.6996    2.7998    0.0000 C   0  0  0  0  0  0  0  0  0  0  0  0
    8.4873    2.0998    0.0000 C   0  0  0  0  0  0  0  0  0  0  0  0
    8.4873    0.6998    0.0000 C   0  0  0  0  0  0  0  0  0  0  0  0
    9.6996    0.0000    0.0000 C   0  0  0  0  0  0  0  0  0  0  0  0
   10.9121    0.6998    0.0000 C   0  0  0  0  0  0  0  0  0  0  0  0
   12.1246    4.1998    0.0000 O   0  0  0  0  0  0  0  0  0  0  0  0
   13.3371    2.0998    0.0000 N   0  0  0  0  0  0  0  0  0  0  0  0
    7.2748    2.7998    0.0000 N   0  0  0  0  0  0  0  0  0  0  0  0
    6.0623    2.0998    0.0000 C   0  0  0  0  0  0  0  0  0  0  0  0
    4.8500    2.7998    0.0000 N   0  0  0  0  0  0  0  0  0  0  0  0
    3.6375    2.0998    0.0000 C   0  0  0  0  0  0  0  0  0  0  0  0
    3.6375    0.6998    0.0000 C   0  0  0  0  0  0  0  0  0  0  0  0
    4.8500    0.0000    0.0000 C   0  0  0  0  0  0  0  0  0  0  0  0
    6.0623    0.6998    0.0000 N   0  0  0  0  0  0  0  0  0  0  0  0
    2.4250    4.1999    0.0000 C   0  0  0  0  0  0  0  0  0  0  0  0
    2.4250    2.7998    0.0000 C   0  0  0  0  0  0  0  0  0  0  0  0
    1.2126    2.0998    0.0000 C   0  0  0  0  0  0  0  0  0  0  0  0
    0.0000    2.7997    0.0000 C   0  0  0  0  0  0  0  0  0  0  0  0
    0.0002    4.1997    0.0000 C   0  0  0  0  0  0  0  0  0  0  0  0
    1.2126    4.8997    0.0000 N   0  0  0  0  0  0  0  0  0  0  0  0
   14.5494    2.7998    0.0000 C   0  0  0  0  0  0  0  0  0  0  0  0
   15.7619    2.0998    0.0000 C   0  0  0  0  0  0  0  0  0  0  0  0
   16.9744    2.7998    0.0000 C   0  0  0  0  0  0  0  0  0  0  0  0
   16.9744    4.1998    0.0000 C   0  0  0  0  0  0  0  0  0  0  0  0
   15.7619    4.9000    0.0000 C   0  0  0  0  0  0  0  0  0  0  0  0
   14.5494    4.1998    0.0000 C   0  0  0  0  0  0  0  0  0  0  0  0
   15.7619    6.3000    0.0000 C   0  0  0  0  0  0  0  0  0  0  0  0
   14.5494    7.0000    0.0000 F   0  0  0  0  0  0  0  0  0  0  0  0
   15.7619    7.6998    0.0000 F   0  0  0  0  0  0  0  0  0  0  0  0
   16.9744    7.0000    0.0000 F   0  0  0  0  0  0  0  0  0  0  0  0
   18.3331    0.7076    0.0000 C   0  0  0  0  0  0  0  0  0  0  0  0
   19.7024    0.4164    0.0000 N   0  0  0  0  0  0  0  0  0  0  0  0
   20.4024    1.6289    0.0000 C   0  0  0  0  0  0  0  0  0  0  0  0
   19.4657    2.6693    0.0000 C   0  0  0  0  0  0  0  0  0  0  0  0
   18.1867    2.0998    0.0000 N   0  0  0  0  0  0  0  0  0  0  0  0
   21.7948    1.7752    0.0000 C   0  0  0  0  0  0  0  0  0  0  0  0
    7.2748    0.0000    0.0000 C   0  0  0  0  0  0  0  0  0  0  0  0
   21.3135    4.2145    0.0000 Cl  0  0  0  0  0  0  0  0  0  0  0  0
  1  2  1  0  0  0  0
  1  8  2  0  0  0  0
  1  9  1  0  0  0  0
  2  3  1  0  0  0  0
  2  7  2  0  0  0  0
  3  4  2  0  0  0  0
  4  5  1  0  0  0  0
  4 10  1  0  0  0  0
  5  6  2  0  0  0  0
  5 39  1  0  0  0  0
  6  7  1  0  0  0  0
  9 23  1  0  0  0  0
 10 11  1  0  0  0  0
 11 12  1  0  0  0  0
 11 16  2  0  0  0  0
 12 13  2  0  0  0  0
 13 14  1  0  0  0  0
 13 18  1  0  0  0  0
 14 15  2  0  0  0  0
 15 16  1  0  0  0  0
 17 18  1  0  0  0  0
 17 22  2  0  0  0  0
 18 19  2  0  0  0  0
 19 20  1  0  0  0  0
 20 21  2  0  0  0  0
 21 22  1  0  0  0  0
 23 24  1  0  0  0  0
 23 28  2  0  0  0  0
 24 25  2  0  0  0  0
 25 26  1  0  0  0  0
 25 37  1  0  0  0  0
 26 27  2  0  0  0  0
 27 28  1  0  0  0  0
 27 29  1  0  0  0  0
 29 30  1  0  0  0  0
 29 31  1  0  0  0  0
 29 32  1  0  0  0  0
 33 34  2  0  0  0  0
 33 37  1  0  0  0  0
 34 35  1  0  0  0  0
 35 36  2  0  0  0  0
 35 38  1  0  0  0  0
 36 37  1  0  0  0  0
M  END
>  <Mol_ID> (711)
4049

>  <Formula> (711)
C28H23ClF3N7O

>  <MolWeight> (711)
565.9767296

>  <Cat> (711)
S5205

>  <Name> (711)
Nilotinib hydrochloride

>  <Synonyms> (711)
AMN-107 HCl

>  <Target> (711)
Bcr-Abl

>  <Form> (711)
hydrochloride 

>  <CAS> (711)
923288-95-3

>  <URL> (711)
http://selleckchem.com/products/nilotinib-hydrochloride.html

$$$$
S5240 lenvatinib Mesylate.cdx
csChFnd80/05071909292D

 35 37  0  0  0  0  0  0  0  0999 V2000
    1.2124    5.6000    0.0000 O   0  0  0  0  0  0  0  0  0  0  0  0
    1.2124    4.2000    0.0000 C   0  0  0  0  0  0  0  0  0  0  0  0
    2.4249    3.5000    0.0000 C   0  0  0  0  0  0  0  0  0  0  0  0
    2.4249    2.1000    0.0000 C   0  0  0  0  0  0  0  0  0  0  0  0
    1.2124    1.4000    0.0000 O   0  0  0  0  0  0  0  0  0  0  0  0
    1.2124    0.0000    0.0000 C   0  0  0  0  0  0  0  0  0  0  0  0
    3.6373    1.4000    0.0000 C   0  0  0  0  0  0  0  0  0  0  0  0
    4.8497    2.1000    0.0000 C   0  0  0  0  0  0  0  0  0  0  0  0
    6.0622    1.4000    0.0000 N   0  0  0  0  0  0  0  0  0  0  0  0
    7.2746    2.1000    0.0000 C   0  0  0  0  0  0  0  0  0  0  0  0
    7.2746    3.5000    0.0000 C   0  0  0  0  0  0  0  0  0  0  0  0
    6.0622    4.2000    0.0000 C   0  0  0  0  0  0  0  0  0  0  0  0
    6.0622    5.6000    0.0000 O   0  0  0  0  0  0  0  0  0  0  0  0
    7.2746    6.3000    0.0000 C   0  0  0  0  0  0  0  0  0  0  0  0
    7.2746    7.7000    0.0000 C   0  0  0  0  0  0  0  0  0  0  0  0
    8.4871    8.4000    0.0000 C   0  0  0  0  0  0  0  0  0  0  0  0
    9.6995    7.7000    0.0000 C   0  0  0  0  0  0  0  0  0  0  0  0
   10.9119    8.4000    0.0000 N   0  0  0  0  0  0  0  0  0  0  0  0
   12.1244    7.7000    0.0000 C   0  0  0  0  0  0  0  0  0  0  0  0
   13.3368    8.4000    0.0000 N   0  0  0  0  0  0  0  0  0  0  0  0
   14.5492    7.7000    0.0000 C   0  0  0  0  0  0  0  0  0  0  0  0
   15.9492    7.7000    0.0000 C   0  0  0  0  0  0  0  0  0  0  0  0
   15.2492    6.4876    0.0000 C   0  0  0  0  0  0  0  0  0  0  0  0
   12.1244    6.3000    0.0000 O   0  0  0  0  0  0  0  0  0  0  0  0
    9.6995    6.3000    0.0000 C   0  0  0  0  0  0  0  0  0  0  0  0
    8.4871    5.6000    0.0000 C   0  0  0  0  0  0  0  0  0  0  0  0
    4.8497    3.5000    0.0000 C   0  0  0  0  0  0  0  0  0  0  0  0
    3.6373    4.2000    0.0000 C   0  0  0  0  0  0  0  0  0  0  0  0
    0.0000    3.5000    0.0000 N   0  0  0  0  0  0  0  0  0  0  0  0
   11.2798    2.6677    0.0000 C   0  0  0  0  0  0  0  0  0  0  0  0
   12.6798    2.6677    0.0000 S   0  0  0  0  0  0  0  0  0  0  0  0
   12.6798    4.0677    0.0000 O   0  0  0  0  0  0  0  0  0  0  0  0
   14.0798    2.6677    0.0000 O   0  0  0  0  0  0  0  0  0  0  0  0
   12.6798    1.2677    0.0000 O   0  0  0  0  0  0  0  0  0  0  0  0
    8.4871    9.8000    0.0000 Cl  0  0  0  0  0  0  0  0  0  0  0  0
  1  2  2  0  0  0  0
  2  3  1  0  0  0  0
  3  4  2  0  0  0  0
  4  5  1  0  0  0  0
  5  6  1  0  0  0  0
  4  7  1  0  0  0  0
  7  8  2  0  0  0  0
  8  9  1  0  0  0  0
  9 10  2  0  0  0  0
 10 11  1  0  0  0  0
 11 12  2  0  0  0  0
 12 13  1  0  0  0  0
 13 14  1  0  0  0  0
 14 15  2  0  0  0  0
 15 16  1  0  0  0  0
 16 17  2  0  0  0  0
 17 18  1  0  0  0  0
 18 19  1  0  0  0  0
 19 20  1  0  0  0  0
 20 21  1  0  0  0  0
 21 22  1  0  0  0  0
 22 23  1  0  0  0  0
 21 23  1  0  0  0  0
 19 24  2  0  0  0  0
 17 25  1  0  0  0  0
 25 26  2  0  0  0  0
 14 26  1  0  0  0  0
 12 27  1  0  0  0  0
  8 27  1  0  0  0  0
 27 28  2  0  0  0  0
  3 28  1  0  0  0  0
  2 29  1  0  0  0  0
 30 31  1  0  0  0  0
 31 32  2  0  0  0  0
 31 33  1  0  0  0  0
 31 34  2  0  0  0  0
 16 35  1  0  0  0  0
M  END
>  <Mol_ID> (712)
4051

>  <Formula> (712)
C22H23ClN4O7S

>  <MolWeight> (712)
522.95862

>  <Cat> (712)
S5240

>  <Name> (712)
lenvatinib Mesylate

>  <Synonyms> (712)
N/A

>  <Target> (712)
VEGFR

>  <Form> (712)
Mesylate

>  <CAS> (712)
 857890-39-2

>  <URL> (712)
http://selleckchem.com/products/lenvatinib-mesylate.html

$$$$
S5265 TBB.cdx
csChFnd80/05071909292D

 13 14  0  0  0  0  0  0  0  0999 V2000
    3.6325    3.4979    0.0000 C   0  0  0  0  0  0  0  0  0  0  0  0
    3.6325    2.0929    0.0000 C   0  0  0  0  0  0  0  0  0  0  0  0
    2.4216    4.2006    0.0000 C   0  0  0  0  0  0  0  0  0  0  0  0
    2.4216    1.3902    0.0000 C   0  0  0  0  0  0  0  0  0  0  0  0
    1.2107    2.0929    0.0000 C   0  0  0  0  0  0  0  0  0  0  0  0
    1.2107    3.4979    0.0000 C   0  0  0  0  0  0  0  0  0  0  0  0
    5.7700    2.7954    0.0000 N   0  0  0  0  0  0  0  0  0  0  0  0
    4.9927    3.9166    0.0000 N   0  0  0  0  0  0  0  0  0  0  0  0
    4.9927    1.6743    0.0000 N   0  0  0  0  0  0  0  0  0  0  0  0
    2.4216    5.5909    0.0000 Br  0  0  0  0  0  0  0  0  0  0  0  0
    2.4216    0.0000    0.0000 Br  0  0  0  0  0  0  0  0  0  0  0  0
    0.0000    1.3902    0.0000 Br  0  0  0  0  0  0  0  0  0  0  0  0
    0.0000    4.2006    0.0000 Br  0  0  0  0  0  0  0  0  0  0  0  0
  2  1  2  0  0  0  0
  3  1  1  0  0  0  0
  8  1  1  0  0  0  0
  4  2  1  0  0  0  0
  9  2  1  0  0  0  0
  6  3  2  0  0  0  0
 10  3  1  0  0  0  0
 11  4  1  0  0  0  0
  5  4  2  0  0  0  0
  5  6  1  0  0  0  0
 12  5  1  0  0  0  0
 13  6  1  0  0  0  0
  7  8  2  0  0  0  0
  9  7  1  0  0  0  0
M  END
>  <Mol_ID> (713)
4054

>  <Formula> (713)
C6HBr4N3

>  <MolWeight> (713)
434.70824

>  <Cat> (713)
S5265

>  <Name> (713)
TBB

>  <Synonyms> (713)
4,5,6,7-tetrabromobenzotriazole 

>  <Target> (713)
Casein Kinase

>  <CAS> (713)
17374-26-4

>  <URL> (713)
http://selleckchem.com/products/tbb.html

$$$$
S5272 Toceranib phosphate.cdx
csChFnd80/05071909292D

 34 36  0  0  0  0  0  0  0  0999 V2000
    7.6282    8.7151    0.0000 N   0  0  0  0  0  0  0  0  0  0  0  0
    8.9877    8.3810    0.0000 C   0  0  0  0  0  0  0  0  0  0  0  0
    9.0677    6.9472    0.0000 C   0  0  0  0  0  0  0  0  0  0  0  0
    7.7942    6.4558    0.0000 C   0  0  0  0  0  0  0  0  0  0  0  0
    6.8905    7.5252    0.0000 C   0  0  0  0  0  0  0  0  0  0  0  0
   10.2801    6.2472    0.0000 C   0  0  0  0  0  0  0  0  0  0  0  0
   10.2801    4.8472    0.0000 O   0  0  0  0  0  0  0  0  0  0  0  0
   11.4926    6.9472    0.0000 N   0  0  0  0  0  0  0  0  0  0  0  0
   12.7050    6.2472    0.0000 C   0  0  0  0  0  0  0  0  0  0  0  0
   13.9174    6.9472    0.0000 C   0  0  0  0  0  0  0  0  0  0  0  0
   15.1299    6.2472    0.0000 N   0  0  0  0  0  0  0  0  0  0  0  0
   16.4089    6.8166    0.0000 C   0  0  0  0  0  0  0  0  0  0  0  0
   17.3456    5.7761    0.0000 C   0  0  0  0  0  0  0  0  0  0  0  0
   16.6457    4.5636    0.0000 C   0  0  0  0  0  0  0  0  0  0  0  0
   15.2763    4.8548    0.0000 C   0  0  0  0  0  0  0  0  0  0  0  0
    7.4603    5.0962    0.0000 C   0  0  0  0  0  0  0  0  0  0  0  0
   10.0571    9.2846    0.0000 C   0  0  0  0  0  0  0  0  0  0  0  0
    5.4943    7.4226    0.0000 C   0  0  0  0  0  0  0  0  0  0  0  0
    4.0754   10.7558    0.0000 N   0  0  0  0  0  0  0  0  0  0  0  0
    5.1815    9.8977    0.0000 C   0  0  0  0  0  0  0  0  0  0  0  0
    4.7073    8.5805    0.0000 C   0  0  0  0  0  0  0  0  0  0  0  0
    3.3080    8.6245    0.0000 C   0  0  0  0  0  0  0  0  0  0  0  0
    2.3390    7.6140    0.0000 C   0  0  0  0  0  0  0  0  0  0  0  0
    0.9899    7.9376    0.0000 C   0  0  0  0  0  0  0  0  0  0  0  0
    0.5889    9.2923    0.0000 C   0  0  0  0  0  0  0  0  0  0  0  0
    1.5578   10.3028    0.0000 C   0  0  0  0  0  0  0  0  0  0  0  0
    2.9174    9.9689    0.0000 C   0  0  0  0  0  0  0  0  0  0  0  0
    6.5259   10.2883    0.0000 O   0  0  0  0  0  0  0  0  0  0  0  0
    0.0000    6.9477    0.0000 F   0  0  0  0  0  0  0  0  0  0  0  0
    7.9952    1.4000    0.0000 P   0  0  0  0  0  0  0  0  0  0  0  0
    7.9952    0.0000    0.0000 O   0  0  0  0  0  0  0  0  0  0  0  0
    6.5952    1.4000    0.0000 O   0  0  0  0  0  0  0  0  0  0  0  0
    7.9952    2.8000    0.0000 O   0  0  0  0  0  0  0  0  0  0  0  0
    9.3952    1.4000    0.0000 O   0  0  0  0  0  0  0  0  0  0  0  0
  1  2  1  0  0  0  0
  2  3  2  0  0  0  0
  3  4  1  0  0  0  0
  4  5  2  0  0  0  0
  1  5  1  0  0  0  0
  6  7  2  0  0  0  0
  6  8  1  0  0  0  0
  3  6  1  0  0  0  0
  9 10  1  0  0  0  0
 11 12  1  0  0  0  0
 12 13  1  0  0  0  0
 13 14  1  0  0  0  0
 14 15  1  0  0  0  0
 11 15  1  0  0  0  0
 10 11  1  0  0  0  0
  8  9  1  0  0  0  0
  4 16  1  0  0  0  0
  2 17  1  0  0  0  0
 19 20  1  0  0  0  0
 20 21  1  0  0  0  0
 21 22  1  0  0  0  0
 22 23  1  0  0  0  0
 23 24  2  0  0  0  0
 24 25  1  0  0  0  0
 25 26  2  0  0  0  0
 26 27  1  0  0  0  0
 19 27  1  0  0  0  0
 22 27  2  0  0  0  0
 20 28  2  0  0  0  0
 24 29  1  0  0  0  0
 18 21  2  0  0  0  0
  5 18  1  0  0  0  0
 30 31  2  0  0  0  0
 30 32  1  0  0  0  0
 30 33  1  0  0  0  0
 30 34  1  0  0  0  0
M  END
>  <Mol_ID> (714)
4056

>  <Formula> (714)
C22H28FN4O6P

>  <MolWeight> (714)
494.4530842

>  <Cat> (714)
S5272

>  <Name> (714)
Toceranib phosphate

>  <Synonyms> (714)
SU11654

>  <Target> (714)
PDGFR

>  <Form> (714)
phosphate 

>  <CAS> (714)
874819-74-6

>  <URL> (714)
http://selleckchem.com/products/.html

$$$$
ARQ 531.cdx
csChFnd80/05071909292D

 34 38  0  0  0  0  0  0  0  0999 V2000
    4.8497    8.3228    0.0000 C   0  0  0  0  0  0  0  0  0  0  0  0
    4.8497    6.9228    0.0000 N   0  0  0  0  0  0  0  0  0  0  0  0
    6.0622    6.2228    0.0000 C   0  0  0  0  0  0  0  0  0  0  0  0
    7.2746    6.9228    0.0000 C   0  0  0  0  0  0  0  0  0  0  0  0
    7.2746    8.3228    0.0000 C   0  0  0  0  0  0  0  0  0  0  0  0
    6.0622    9.0228    0.0000 N   0  0  0  0  0  0  0  0  0  0  0  0
    8.6061    6.4902    0.0000 C   0  0  0  0  0  0  0  0  0  0  0  0
    9.4290    7.6228    0.0000 C   0  0  0  0  0  0  0  0  0  0  0  0
    8.6061    8.7555    0.0000 N   0  0  0  0  0  0  0  0  0  0  0  0
    6.0622    4.8228    0.0000 N   0  0  0  0  0  0  0  0  0  0  0  0
    4.8497    4.1228    0.0000 C   0  0  1  0  0  0  0  0  0  0  0  0
    3.6373    4.8228    0.0000 C   0  0  0  0  0  0  0  0  0  0  0  0
    2.4249    4.1228    0.0000 O   0  0  0  0  0  0  0  0  0  0  0  0
    2.4249    2.7228    0.0000 C   0  0  1  0  0  0  0  0  0  0  0  0
    3.6373    2.0228    0.0000 C   0  0  0  0  0  0  0  0  0  0  0  0
    4.8497    2.7228    0.0000 C   0  0  0  0  0  0  0  0  0  0  0  0
    9.0387    5.1587    0.0000 C   0  0  0  0  0  0  0  0  0  0  0  0
    8.1019    4.1183    0.0000 O   0  0  0  0  0  0  0  0  0  0  0  0
   10.4081    4.8677    0.0000 C   0  0  0  0  0  0  0  0  0  0  0  0
    1.2124    2.0228    0.0000 C   0  0  0  0  0  0  0  0  0  0  0  0
    0.0000    2.7228    0.0000 O   0  0  0  0  0  0  0  0  0  0  0  0
   10.8407    3.5362    0.0000 C   0  0  0  0  0  0  0  0  0  0  0  0
   12.2102    3.2451    0.0000 C   0  0  0  0  0  0  0  0  0  0  0  0
   13.1469    4.2855    0.0000 C   0  0  0  0  0  0  0  0  0  0  0  0
   12.7143    5.6170    0.0000 C   0  0  0  0  0  0  0  0  0  0  0  0
   11.3449    5.9081    0.0000 C   0  0  0  0  0  0  0  0  0  0  0  0
   10.9123    7.2395    0.0000 Cl  0  0  0  0  0  0  0  0  0  0  0  0
   14.5163    3.9944    0.0000 O   0  0  0  0  0  0  0  0  0  0  0  0
   14.9490    2.6630    0.0000 C   0  0  0  0  0  0  0  0  0  0  0  0
   14.0122    1.6226    0.0000 C   0  0  0  0  0  0  0  0  0  0  0  0
   14.4448    0.2911    0.0000 C   0  0  0  0  0  0  0  0  0  0  0  0
   15.8142    0.0000    0.0000 C   0  0  0  0  0  0  0  0  0  0  0  0
   16.7510    1.0404    0.0000 C   0  0  0  0  0  0  0  0  0  0  0  0
   16.3184    2.3719    0.0000 C   0  0  0  0  0  0  0  0  0  0  0  0
  1  2  2  0  0  0  0
  2  3  1  0  0  0  0
  3  4  2  0  0  0  0
  4  5  1  0  0  0  0
  5  6  2  0  0  0  0
  6  1  1  0  0  0  0
  4  7  1  0  0  0  0
  7  8  2  0  0  0  0
  8  9  1  0  0  0  0
  9  5  1  0  0  0  0
  3 10  1  0  0  0  0
 11 10  1  6  0  0  0
 11 12  1  0  0  0  0
 12 13  1  0  0  0  0
 13 14  1  0  0  0  0
 14 15  1  0  0  0  0
 15 16  1  0  0  0  0
 16 11  1  0  0  0  0
  7 17  1  0  0  0  0
 17 18  2  0  0  0  0
 17 19  1  0  0  0  0
 14 20  1  1  0  0  0
 20 21  1  0  0  0  0
 19 22  2  0  0  0  0
 22 23  1  0  0  0  0
 23 24  2  0  0  0  0
 24 25  1  0  0  0  0
 25 26  2  0  0  0  0
 26 19  1  0  0  0  0
 26 27  1  0  0  0  0
 24 28  1  0  0  0  0
 28 29  1  0  0  0  0
 29 30  2  0  0  0  0
 30 31  1  0  0  0  0
 31 32  2  0  0  0  0
 32 33  1  0  0  0  0
 33 34  2  0  0  0  0
 34 29  1  0  0  0  0
M  END
>  <Mol_ID> (715)
4074

>  <Formula> (715)
C25H23ClN4O4

>  <MolWeight> (715)
478.92752

>  <Cat> (715)
S8711

>  <Name> (715)
ARQ 531

>  <Synonyms> (715)
N/A

>  <Target> (715)
BTK

>  <Form> (715)
free base

>  <CAS> (715)
2095393-15-8

>  <URL> (715)
http://selleckchem.com/products/.html

$$$$
CCT245737.cdx
csChFnd80/05071909292D

 27 29  0  0  0  0  0  0  0  0999 V2000
    2.4207    2.1000    0.0000 C   0  0  0  0  0  0  0  0  0  0  0  0
    2.4207    0.7000    0.0000 C   0  0  0  0  0  0  0  0  0  0  0  0
    3.6331    0.0000    0.0000 N   0  0  0  0  0  0  0  0  0  0  0  0
    4.8455    0.7000    0.0000 C   0  0  0  0  0  0  0  0  0  0  0  0
    4.8455    2.1000    0.0000 C   0  0  0  0  0  0  0  0  0  0  0  0
    3.6331    2.8000    0.0000 C   0  0  0  0  0  0  0  0  0  0  0  0
    6.0538    0.0024    0.0000 N   0  0  0  0  0  0  0  0  0  0  0  0
    7.2620    0.7000    0.0000 C   0  0  0  0  0  0  0  0  0  0  0  0
    8.4744    0.0000    0.0000 C   0  0  0  0  0  0  0  0  0  0  0  0
    9.6869    0.7000    0.0000 N   0  0  0  0  0  0  0  0  0  0  0  0
    9.6869    2.1000    0.0000 C   0  0  0  0  0  0  0  0  0  0  0  0
    8.4744    2.8000    0.0000 C   0  0  0  0  0  0  0  0  0  0  0  0
    7.2620    2.1000    0.0000 N   0  0  0  0  0  0  0  0  0  0  0  0
   10.8951    2.7976    0.0000 C   0  0  0  0  0  0  0  0  0  0  0  0
   12.1075    3.4976    0.0000 N   0  0  0  0  0  0  0  0  0  0  0  0
    3.6331    4.1951    0.0000 N   0  0  0  0  0  0  0  0  0  0  0  0
    1.2124    2.7976    0.0000 C   0  0  0  0  0  0  0  0  0  0  0  0
    1.9124    4.0100    0.0000 F   0  0  0  0  0  0  0  0  0  0  0  0
    0.5124    1.5851    0.0000 F   0  0  0  0  0  0  0  0  0  0  0  0
    0.0000    3.4976    0.0000 F   0  0  0  0  0  0  0  0  0  0  0  0
    4.8413    4.8927    0.0000 C   0  0  0  0  0  0  0  0  0  0  0  0
    4.8413    6.2927    0.0000 C   0  0  2  0  0  0  0  0  0  0  0  0
    6.0538    6.9927    0.0000 O   0  0  0  0  0  0  0  0  0  0  0  0
    6.0538    8.3927    0.0000 C   0  0  0  0  0  0  0  0  0  0  0  0
    4.8413    9.0927    0.0000 C   0  0  0  0  0  0  0  0  0  0  0  0
    3.6289    8.3927    0.0000 N   0  0  0  0  0  0  0  0  0  0  0  0
    3.6289    6.9927    0.0000 C   0  0  0  0  0  0  0  0  0  0  0  0
  1  2  2  0  0  0  0
  2  3  1  0  0  0  0
  3  4  2  0  0  0  0
  4  5  1  0  0  0  0
  5  6  2  0  0  0  0
  6  1  1  0  0  0  0
  4  7  1  0  0  0  0
  7  8  1  0  0  0  0
  8  9  2  0  0  0  0
  9 10  1  0  0  0  0
 10 11  2  0  0  0  0
 11 12  1  0  0  0  0
 12 13  2  0  0  0  0
 13  8  1  0  0  0  0
 11 14  1  0  0  0  0
  6 16  1  0  0  0  0
  1 17  1  0  0  0  0
 16 21  1  0  0  0  0
 22 21  1  1  0  0  0
 22 23  1  0  0  0  0
 23 24  1  0  0  0  0
 24 25  1  0  0  0  0
 25 26  1  0  0  0  0
 26 27  1  0  0  0  0
 27 22  1  0  0  0  0
 14 15  3  0  0  0  0
 17 18  1  0  0  0  0
 17 19  1  0  0  0  0
 17 20  1  0  0  0  0
M  END
>  <Mol_ID> (716)
4087

>  <Formula> (716)
C16H16F3N7O

>  <MolWeight> (716)
379.3397496

>  <Cat> (716)
S8253

>  <Name> (716)
CCT245737 

>  <Synonyms> (716)
N/A

>  <Target> (716)
Chk

>  <Form> (716)
free base

>  <CAS> (716)
1489389-18-5

>  <URL> (716)
http://www.selleckchem.com/products/cct245737.html

$$$$
Lazertinib (YH25448,GNS-1480).cdx
csChFnd80/05071909292D

 41 45  0  0  0  0  0  0  0  0999 V2000
    3.6373    4.2000    0.0000 C   0  0  0  0  0  0  0  0  0  0  0  0
    3.6373    2.8000    0.0000 C   0  0  0  0  0  0  0  0  0  0  0  0
    4.8497    2.1000    0.0000 C   0  0  0  0  0  0  0  0  0  0  0  0
    6.0622    2.8000    0.0000 C   0  0  0  0  0  0  0  0  0  0  0  0
    6.0622    4.2000    0.0000 C   0  0  0  0  0  0  0  0  0  0  0  0
    4.8497    4.9000    0.0000 C   0  0  0  0  0  0  0  0  0  0  0  0
    2.4249    4.9000    0.0000 N   0  0  0  0  0  0  0  0  0  0  0  0
    2.4249    2.1000    0.0000 N   0  0  0  0  0  0  0  0  0  0  0  0
    7.2746    4.9000    0.0000 N   0  0  0  0  0  0  0  0  0  0  0  0
    7.2746    2.1000    0.0000 O   0  0  0  0  0  0  0  0  0  0  0  0
    7.2746    0.7000    0.0000 C   0  0  0  0  0  0  0  0  0  0  0  0
    1.2124    2.8000    0.0000 C   0  0  0  0  0  0  0  0  0  0  0  0
    8.4870    4.2000    0.0000 C   0  0  0  0  0  0  0  0  0  0  0  0
    8.4870    2.8000    0.0000 N   0  0  0  0  0  0  0  0  0  0  0  0
    9.6995    2.1000    0.0000 C   0  0  0  0  0  0  0  0  0  0  0  0
   10.9119    2.8000    0.0000 C   0  0  0  0  0  0  0  0  0  0  0  0
   10.9119    4.2000    0.0000 C   0  0  0  0  0  0  0  0  0  0  0  0
    9.6995    4.9000    0.0000 N   0  0  0  0  0  0  0  0  0  0  0  0
   12.1244    4.9000    0.0000 N   0  0  0  0  0  0  0  0  0  0  0  0
   13.4033    4.3306    0.0000 N   0  0  0  0  0  0  0  0  0  0  0  0
   14.3401    5.3710    0.0000 C   0  0  0  0  0  0  0  0  0  0  0  0
   13.6401    6.5834    0.0000 C   0  0  0  0  0  0  0  0  0  0  0  0
   12.2707    6.2923    0.0000 C   0  0  0  0  0  0  0  0  0  0  0  0
   14.2095    7.8624    0.0000 C   0  0  0  0  0  0  0  0  0  0  0  0
   13.3866    8.9950    0.0000 N   0  0  0  0  0  0  0  0  0  0  0  0
   13.9561   10.2740    0.0000 C   0  0  0  0  0  0  0  0  0  0  0  0
   11.9943    8.8487    0.0000 C   0  0  0  0  0  0  0  0  0  0  0  0
   15.7324    5.2246    0.0000 C   0  0  0  0  0  0  0  0  0  0  0  0
   16.3019    3.9457    0.0000 C   0  0  0  0  0  0  0  0  0  0  0  0
   17.6942    3.7993    0.0000 C   0  0  0  0  0  0  0  0  0  0  0  0
   18.5171    4.9320    0.0000 C   0  0  0  0  0  0  0  0  0  0  0  0
   17.9477    6.2109    0.0000 C   0  0  0  0  0  0  0  0  0  0  0  0
   16.5553    6.3573    0.0000 C   0  0  0  0  0  0  0  0  0  0  0  0
    0.0000    2.1000    0.0000 C   0  0  0  0  0  0  0  0  0  0  0  0
    0.0000    0.7000    0.0000 O   0  0  0  0  0  0  0  0  0  0  0  0
    1.2124    0.0000    0.0000 C   0  0  0  0  0  0  0  0  0  0  0  0
    2.4249    0.7000    0.0000 C   0  0  0  0  0  0  0  0  0  0  0  0
    2.4249    6.3000    0.0000 C   0  0  0  0  0  0  0  0  0  0  0  0
    1.2124    7.0000    0.0000 C   0  0  0  0  0  0  0  0  0  0  0  0
    3.6373    7.0000    0.0000 O   0  0  0  0  0  0  0  0  0  0  0  0
    1.2124    8.4000    0.0000 C   0  0  0  0  0  0  0  0  0  0  0  0
  1  2  2  0  0  0  0
  2  3  1  0  0  0  0
  3  4  2  0  0  0  0
  4  5  1  0  0  0  0
  5  6  2  0  0  0  0
  6  1  1  0  0  0  0
  1  7  1  0  0  0  0
  2  8  1  0  0  0  0
  5  9  1  0  0  0  0
  4 10  1  0  0  0  0
 10 11  1  0  0  0  0
  9 13  1  0  0  0  0
 13 14  2  0  0  0  0
 14 15  1  0  0  0  0
 15 16  2  0  0  0  0
 16 17  1  0  0  0  0
 17 18  2  0  0  0  0
 18 13  1  0  0  0  0
 17 19  1  0  0  0  0
 19 20  1  0  0  0  0
 20 21  2  0  0  0  0
 21 22  1  0  0  0  0
 22 23  2  0  0  0  0
 23 19  1  0  0  0  0
 22 24  1  0  0  0  0
 24 25  1  0  0  0  0
 25 26  1  0  0  0  0
 25 27  1  0  0  0  0
 21 28  1  0  0  0  0
 28 29  2  0  0  0  0
 29 30  1  0  0  0  0
 30 31  2  0  0  0  0
 31 32  1  0  0  0  0
 32 33  2  0  0  0  0
 33 28  1  0  0  0  0
  8 12  1  0  0  0  0
 12 34  1  0  0  0  0
 34 35  1  0  0  0  0
 35 36  1  0  0  0  0
 36 37  1  0  0  0  0
 37  8  1  0  0  0  0
  7 38  1  0  0  0  0
 38 39  1  0  0  0  0
 38 40  2  0  0  0  0
 39 41  2  0  0  0  0
M  END
>  <Mol_ID> (717)
4103

>  <Formula> (717)
C30H34N8O3

>  <MolWeight> (717)
554.64276

>  <Cat> (717)
S8724

>  <Name> (717)
Lazertinib (YH25448,GNS-1480)

>  <Form> (717)
free base

>  <CAS> (717)
1903008-80-9

$$$$
S9414 Cyasterone.cdx
csChFnd80/05071909292D

 40 44  0  0  0  0  0  0  0  0999 V2000
    7.3112    4.1997    0.0000 C   0  0  1  0  0  0  0  0  0  0  0  0
    6.1113    3.5009    0.0000 C   0  0  0  0  0  0  0  0  0  0  0  0
    7.3112    5.5776    0.0000 C   0  0  1  0  0  0  0  0  0  0  0  0
    8.6034    3.8042    0.0000 C   0  0  0  0  0  0  0  0  0  0  0  0
    7.3112    2.8877    0.0000 O   0  0  0  0  0  0  0  0  0  0  0  0
    4.8982    4.1997    0.0000 C   0  0  1  0  0  0  0  0  0  0  0  0
    6.1113    2.0965    0.0000 C   0  0  0  0  0  0  0  0  0  0  0  0
    8.6231    6.0456    0.0000 C   0  0  2  0  0  0  0  0  0  0  0  0
    6.1113    6.2961    0.0000 C   0  0  0  0  0  0  0  0  0  0  0  0
    7.3112    6.9949    0.0000 C   0  0  0  0  0  0  0  0  0  0  0  0
    9.4670    4.9116    0.0000 C   0  0  0  0  0  0  0  0  0  0  0  0
    3.6786    3.5009    0.0000 C   0  0  2  0  0  0  0  0  0  0  0  0
    4.8982    5.5776    0.0000 C   0  0  0  0  0  0  0  0  0  0  0  0
    4.8982    1.3779    0.0000 C   0  0  0  0  0  0  0  0  0  0  0  0
    9.0056    7.3708    0.0000 C   0  0  1  0  0  0  0  0  0  0  0  0
    3.6786    2.0965    0.0000 C   0  0  2  0  0  0  0  0  0  0  0  0
    2.4524    4.1997    0.0000 C   0  0  0  0  0  0  0  0  0  0  0  0
    3.6786    4.8985    0.0000 C   0  0  0  0  0  0  0  0  0  0  0  0
    4.8982    0.0000    0.0000 O   0  0  0  0  0  0  0  0  0  0  0  0
   10.3438    7.6939    0.0000 C   0  0  1  0  0  0  0  0  0  0  0  0
    7.5881    7.9046    0.0000 C   0  0  0  0  0  0  0  0  0  0  0  0
    8.5506    8.6102    0.0000 O   0  0  0  0  0  0  0  0  0  0  0  0
    2.4524    1.3779    0.0000 C   0  0  0  0  0  0  0  0  0  0  0  0
    1.2196    3.5009    0.0000 C   0  0  1  0  0  0  0  0  0  0  0  0
   11.2998    6.6192    0.0000 C   0  0  0  0  0  0  0  0  0  0  0  0
    1.2196    2.0965    0.0000 C   0  0  2  0  0  0  0  0  0  0  0  0
    0.0197    4.1797    0.0000 O   0  0  0  0  0  0  0  0  0  0  0  0
   12.6580    6.9224    0.0000 C   0  0  1  0  0  0  0  0  0  0  0  0
    0.0000    1.4307    0.0000 O   0  0  0  0  0  0  0  0  0  0  0  0
   13.9171    6.3884    0.0000 C   0  0  1  0  0  0  0  0  0  0  0  0
   12.7632    8.2805    0.0000 C   0  0  2  0  0  0  0  0  0  0  0  0
   14.8995    7.3507    0.0000 C   0  0  0  0  0  0  0  0  0  0  0  0
   14.2402    4.9840    0.0000 C   0  0  0  0  0  0  0  0  0  0  0  0
   14.2007    8.5639    0.0000 O   0  0  0  0  0  0  0  0  0  0  0  0
   11.7086    9.1837    0.0000 C   0  0  0  0  0  0  0  0  0  0  0  0
   16.3366    7.2058    0.0000 O   0  0  0  0  0  0  0  0  0  0  0  0
    4.8982    2.9930    0.0000 H   0  0  0  0  0  0  0  0  0  0  0  0
    3.6589    0.5539    0.0000 H   0  0  0  0  0  0  0  0  0  0  0  0
   10.0231    6.0456    0.0000 H   0  0  0  0  0  0  0  0  0  0  0  0
   10.3246    9.0299    0.0000 O   0  0  0  0  0  0  0  0  0  0  0  0
  1  2  1  0  0  0  0
  1  3  1  0  0  0  0
  1  4  1  0  0  0  0
  1  5  1  6  0  0  0
  2  6  1  0  0  0  0
  2  7  2  0  0  0  0
  3  8  1  0  0  0  0
  3  9  1  0  0  0  0
  3 10  1  1  0  0  0
  4 11  1  0  0  0  0
  6 12  1  0  0  0  0
  6 13  1  0  0  0  0
  6 37  1  6  0  0  0
  7 14  1  0  0  0  0
  8 15  1  0  0  0  0
  8 11  1  0  0  0  0
  9 13  1  0  0  0  0
 12 16  1  0  0  0  0
 12 17  1  0  0  0  0
 12 18  1  1  0  0  0
 14 19  2  0  0  0  0
 14 16  1  0  0  0  0
 15 20  1  0  0  0  0
 15 21  1  6  0  0  0
 15 22  1  1  0  0  0
 16 23  1  0  0  0  0
 16 38  1  1  0  0  0
 17 24  1  0  0  0  0
 20 25  1  0  0  0  0
 23 26  1  0  0  0  0
 24 27  1  1  0  0  0
 24 26  1  0  0  0  0
 28 25  1  6  0  0  0
 26 29  1  1  0  0  0
 28 30  1  0  0  0  0
 28 31  1  0  0  0  0
 30 32  1  0  0  0  0
 30 33  1  1  0  0  0
 31 34  1  0  0  0  0
 31 35  1  1  0  0  0
 32 36  2  0  0  0  0
 32 34  1  0  0  0  0
  8 39  1  6  0  0  0
 20 40  1  6  0  0  0
M  END
>  <Mol_ID> (718)
4182

>  <Formula> (718)
C29H44O8

>  <MolWeight> (718)
520.65486

>  <Cat> (718)
S9414

>  <Name> (718)
Cyasterone

>  <Form> (718)
free base

>  <CAS> (718)
17086-76-9

$$$$
S9031 Gambogenic acid.cdx
csChFnd80/05071909292D

 46 50  0  0  0  0  0  0  0  0999 V2000
   12.1266    3.5018    0.0000 C   0  0  0  0  0  0  0  0  0  0  0  0
   12.1266    2.1024    0.0000 C   0  0  0  0  0  0  0  0  0  0  0  0
   13.3438    1.3994    0.0000 C   0  0  0  0  0  0  0  0  0  0  0  0
   14.5545    2.1024    0.0000 C   0  0  0  0  0  0  0  0  0  0  0  0
   14.5545    3.5018    0.0000 C   0  0  2  0  0  0  0  0  0  0  0  0
   13.3438    4.2048    0.0000 O   0  0  0  0  0  0  0  0  0  0  0  0
   10.9159    4.2048    0.0000 C   0  0  0  0  0  0  0  0  0  0  0  0
    9.7052    3.5018    0.0000 C   0  0  0  0  0  0  0  0  0  0  0  0
    9.7052    2.1024    0.0000 C   0  0  0  0  0  0  0  0  0  0  0  0
   10.9159    1.3994    0.0000 C   0  0  0  0  0  0  0  0  0  0  0  0
    8.4879    4.2048    0.0000 O   0  0  0  0  0  0  0  0  0  0  0  0
    7.2772    2.1024    0.0000 C   0  0  0  0  0  0  0  0  0  0  0  0
    8.4879    1.3994    0.0000 C   0  0  0  0  0  0  0  0  0  0  0  0
   10.9159    5.6044    0.0000 C   0  0  0  0  0  0  0  0  0  0  0  0
    9.7052    6.3008    0.0000 C   0  0  0  0  0  0  0  0  0  0  0  0
    9.7052    7.7002    0.0000 C   0  0  0  0  0  0  0  0  0  0  0  0
   10.9159    8.3968    0.0000 C   0  0  0  0  0  0  0  0  0  0  0  0
    8.4945    8.3968    0.0000 C   0  0  0  0  0  0  0  0  0  0  0  0
   10.9159    0.0000    0.0000 O   0  0  0  0  0  0  0  0  0  0  0  0
   13.3438    0.0000    0.0000 O   0  0  0  0  0  0  0  0  0  0  0  0
   15.7717    1.3994    0.0000 C   0  0  0  0  0  0  0  0  0  0  0  0
   16.9824    2.1024    0.0000 C   0  0  1  0  0  0  0  0  0  0  0  0
   15.7912    5.0576    0.0000 C   0  0  2  0  0  0  0  0  0  0  0  0
   16.9824    3.5018    0.0000 C   0  0  0  0  0  0  0  0  0  0  0  0
   18.1996    4.2048    0.0000 O   0  0  0  0  0  0  0  0  0  0  0  0
   18.9156    5.5392    0.0000 C   0  0  2  0  0  0  0  0  0  0  0  0
   18.9156    6.9387    0.0000 C   0  0  0  0  0  0  0  0  0  0  0  0
   19.2736    8.2926    0.0000 C   0  0  0  0  0  0  0  0  0  0  0  0
   20.2695    7.3033    0.0000 C   0  0  0  0  0  0  0  0  0  0  0  0
   16.6113    6.4961    0.0000 O   0  0  0  0  0  0  0  0  0  0  0  0
   15.0882    6.2747    0.0000 C   0  0  0  0  0  0  0  0  0  0  0  0
   13.8759    6.9741    0.0000 C   0  0  0  0  0  0  0  0  0  0  0  0
   13.8776    8.3708    0.0000 C   0  0  0  0  0  0  0  0  0  0  0  0
   12.6654    9.0701    0.0000 C   0  0  0  0  0  0  0  0  0  0  0  0
   18.9351    3.1830    0.0000 C   0  0  0  0  0  0  0  0  0  0  0  0
    6.0601    1.3994    0.0000 C   0  0  0  0  0  0  0  0  0  0  0  0
    4.8494    2.1024    0.0000 C   0  0  0  0  0  0  0  0  0  0  0  0
    6.0601    0.0000    0.0000 C   0  0  0  0  0  0  0  0  0  0  0  0
    3.6387    1.3994    0.0000 C   0  0  0  0  0  0  0  0  0  0  0  0
    2.4214    2.1024    0.0000 C   0  0  0  0  0  0  0  0  0  0  0  0
    1.2107    1.3994    0.0000 C   0  0  0  0  0  0  0  0  0  0  0  0
    0.0000    2.0958    0.0000 C   0  0  0  0  0  0  0  0  0  0  0  0
    1.2107    0.0000    0.0000 C   0  0  0  0  0  0  0  0  0  0  0  0
   15.0856    9.0715    0.0000 C   0  0  0  0  0  0  0  0  0  0  0  0
   15.0856   10.4715    0.0000 O   0  0  0  0  0  0  0  0  0  0  0  0
   16.2982    8.3714    0.0000 O   0  0  0  0  0  0  0  0  0  0  0  0
  3  4  1  0  0  0  0
  4  5  1  0  0  0  0
  5  6  1  1  0  0  0
  6  1  1  0  0  0  0
  1  7  1  0  0  0  0
  7  8  2  0  0  0  0
  8  9  1  0  0  0  0
  9 10  2  0  0  0  0
 10  2  1  0  0  0  0
  8 11  1  0  0  0  0
 12 13  1  0  0  0  0
 13  9  1  0  0  0  0
  7 14  1  0  0  0  0
 14 15  1  0  0  0  0
 15 16  2  0  0  0  0
 16 17  1  0  0  0  0
 16 18  1  0  0  0  0
 10 19  1  0  0  0  0
  3 20  2  0  0  0  0
  4 21  2  0  0  0  0
 21 22  1  0  0  0  0
 22 24  1  0  0  0  0
 24 23  1  0  0  0  0
 24 25  2  0  0  0  0
  5 26  1  0  0  0  0
 26 27  1  0  0  0  0
 27 28  1  0  0  0  0
 27 29  1  0  0  0  0
 23 30  1  0  0  0  0
 30 27  1  0  0  0  0
 23 31  1  6  0  0  0
 31 32  1  0  0  0  0
 32 33  2  0  0  0  0
 33 34  1  0  0  0  0
 33 44  1  0  0  0  0
 22 35  1  1  0  0  0
 26 35  1  6  0  0  0
 12 36  2  0  0  0  0
 36 37  1  0  0  0  0
 36 38  1  0  0  0  0
 37 39  1  0  0  0  0
 39 40  1  0  0  0  0
 40 41  2  0  0  0  0
 41 42  1  0  0  0  0
 41 43  1  0  0  0  0
  1  2  2  0  0  0  0
  2  3  1  0  0  0  0
  5 23  1  0  0  0  0
 44 45  2  0  0  0  0
 44 46  1  0  0  0  0
M  END
>  <Mol_ID> (719)
4228

>  <Formula> (719)
C38H46O8

>  <MolWeight> (719)
630.76704

>  <Cat> (719)
S9031

>  <Name> (719)
Gambogenic acid

>  <Form> (719)
free base

>  <CAS> (719)
173932-75-7

$$$$
S9102 Magnolin.cdx
csChFnd80/05071909292D

 32 35  0  0  0  0  0  0  0  0999 V2000
    8.4497    4.3088    0.0000 C   0  0  1  0  0  0  0  0  0  0  0  0
    7.1257    4.7469    0.0000 C   0  0  1  0  0  0  0  0  0  0  0  0
    9.2801    5.4352    0.0000 C   0  0  1  0  0  0  0  0  0  0  0  0
    6.2953    3.6205    0.0000 C   0  0  2  0  0  0  0  0  0  0  0  0
   10.6801    5.4352    0.0000 C   0  0  0  0  0  0  0  0  0  0  0  0
    8.4618    6.5741    0.0000 O   0  0  0  0  0  0  0  0  0  0  0  0
    7.1136    2.4816    0.0000 O   0  0  0  0  0  0  0  0  0  0  0  0
   13.4711    5.4261    0.0000 C   0  0  0  0  0  0  0  0  0  0  0  0
    4.8953    3.6205    0.0000 C   0  0  0  0  0  0  0  0  0  0  0  0
    8.4497    2.9088    0.0000 C   0  0  0  0  0  0  0  0  0  0  0  0
    7.1257    6.1469    0.0000 C   0  0  0  0  0  0  0  0  0  0  0  0
   12.7751    4.2206    0.0000 C   0  0  0  0  0  0  0  0  0  0  0  0
   12.7756    6.6308    0.0000 C   0  0  0  0  0  0  0  0  0  0  0  0
   11.3813    4.2206    0.0000 C   0  0  0  0  0  0  0  0  0  0  0  0
   11.3788    6.6455    0.0000 C   0  0  0  0  0  0  0  0  0  0  0  0
    4.1965    2.4102    0.0000 C   0  0  0  0  0  0  0  0  0  0  0  0
    2.7904    2.4102    0.0000 C   0  0  0  0  0  0  0  0  0  0  0  0
    2.0863    3.6296    0.0000 C   0  0  0  0  0  0  0  0  0  0  0  0
    4.1941    4.8351    0.0000 C   0  0  0  0  0  0  0  0  0  0  0  0
    2.7908    4.8498    0.0000 C   0  0  0  0  0  0  0  0  0  0  0  0
   14.8801    5.4261    0.0000 O   0  0  0  0  0  0  0  0  0  0  0  0
   13.4803    7.8514    0.0000 O   0  0  0  0  0  0  0  0  0  0  0  0
   13.4792    3.0012    0.0000 O   0  0  0  0  0  0  0  0  0  0  0  0
    2.0944    1.2047    0.0000 O   0  0  0  0  0  0  0  0  0  0  0  0
    0.6953    3.6296    0.0000 O   0  0  0  0  0  0  0  0  0  0  0  0
   15.5754    6.6304    0.0000 C   0  0  0  0  0  0  0  0  0  0  0  0
   12.7851    9.0555    0.0000 C   0  0  0  0  0  0  0  0  0  0  0  0
   14.8702    3.0012    0.0000 C   0  0  0  0  0  0  0  0  0  0  0  0
    2.7899    0.0000    0.0000 C   0  0  0  0  0  0  0  0  0  0  0  0
    0.0000    2.4253    0.0000 C   0  0  0  0  0  0  0  0  0  0  0  0
    9.7823    3.8708    0.0000 H   0  0  0  0  0  0  0  0  0  0  0  0
    5.7931    5.1849    0.0000 H   0  0  0  0  0  0  0  0  0  0  0  0
  2  1  1  0  0  0  0
  3  1  1  0  0  0  0
 10  1  1  0  0  0  0
  1 31  1  6  0  0  0
  4  2  1  0  0  0  0
 11  2  1  0  0  0  0
  2 32  1  6  0  0  0
  3  5  1  6  0  0  0
  6  3  1  0  0  0  0
  4  9  1  6  0  0  0
  4  7  1  0  0  0  0
 14  5  2  0  0  0  0
 15  5  1  0  0  0  0
  6 11  1  0  0  0  0
  7 10  1  0  0  0  0
  8 13  1  0  0  0  0
 21  8  1  0  0  0  0
 12  8  2  0  0  0  0
 16  9  2  0  0  0  0
 19  9  1  0  0  0  0
 12 14  1  0  0  0  0
 23 12  1  0  0  0  0
 13 15  2  0  0  0  0
 22 13  1  0  0  0  0
 17 16  1  0  0  0  0
 24 17  1  0  0  0  0
 17 18  2  0  0  0  0
 18 20  1  0  0  0  0
 25 18  1  0  0  0  0
 20 19  2  0  0  0  0
 26 21  1  0  0  0  0
 27 22  1  0  0  0  0
 28 23  1  0  0  0  0
 29 24  1  0  0  0  0
 30 25  1  0  0  0  0
M  END
>  <Mol_ID> (720)
4288

>  <Formula> (720)
C23H28O7

>  <MolWeight> (720)
416.46422

>  <Cat> (720)
S9102

>  <Name> (720)
Magnolin

>  <CAS> (720)
31008-18-1

$$$$
S9138 Picfeltarraenin IA.cdx
csChFnd80/05071909292D

 57 63  0  0  0  0  0  0  0  0999 V2000
    8.4828    7.6965    0.0000 C   0  0  0  0  0  0  0  0  0  0  0  0
    8.4828    6.2978    0.0000 C   0  0  2  0  0  0  0  0  0  0  0  0
    9.7005    5.5949    0.0000 C   0  0  0  0  0  0  0  0  0  0  0  0
   10.9113    6.2978    0.0000 C   0  0  0  0  0  0  0  0  0  0  0  0
   10.9113    7.6965    0.0000 C   0  0  1  0  0  0  0  0  0  0  0  0
    9.7005    8.3993    0.0000 C   0  0  0  0  0  0  0  0  0  0  0  0
   12.1221    5.5949    0.0000 C   0  0  0  0  0  0  0  0  0  0  0  0
   13.3400    6.2978    0.0000 C   0  0  0  0  0  0  0  0  0  0  0  0
   13.3400    7.6965    0.0000 C   0  0  2  0  0  0  0  0  0  0  0  0
   12.1221    8.3993    0.0000 C   0  0  1  0  0  0  0  0  0  0  0  0
   14.5508    8.3993    0.0000 C   0  0  1  0  0  0  0  0  0  0  0  0
   14.5508    9.7980    0.0000 C   0  0  2  0  0  0  0  0  0  0  0  0
   13.3400   10.5008    0.0000 C   0  0  0  0  0  0  0  0  0  0  0  0
   12.1221    9.7980    0.0000 C   0  0  0  0  0  0  0  0  0  0  0  0
   15.8799    7.9679    0.0000 C   0  0  0  0  0  0  0  0  0  0  0  0
   16.7081    9.1021    0.0000 C   0  0  2  0  0  0  0  0  0  0  0  0
   15.8799   10.2294    0.0000 C   0  0  2  0  0  0  0  0  0  0  0  0
    8.9977    4.3840    0.0000 C   0  0  0  0  0  0  0  0  0  0  0  0
   10.3964    4.3840    0.0000 C   0  0  0  0  0  0  0  0  0  0  0  0
   10.9113    9.0952    0.0000 H   0  0  0  0  0  0  0  0  0  0  0  0
   14.6969    7.0076    0.0000 C   0  0  0  0  0  0  0  0  0  0  0  0
   18.1068    9.1021    0.0000 O   0  0  0  0  0  0  0  0  0  0  0  0
   16.3183   11.5655    0.0000 C   0  0  1  0  0  0  0  0  0  0  0  0
   17.6684   11.2037    0.0000 O   0  0  0  0  0  0  0  0  0  0  0  0
   18.4338   12.3797    0.0000 C   0  0  0  0  0  0  0  0  0  0  0  0
   17.5500   13.4652    0.0000 C   0  0  0  0  0  0  0  0  0  0  0  0
   16.2418   12.9642    0.0000 C   0  0  0  0  0  0  0  0  0  0  0  0
   15.1006   12.2614    0.0000 C   0  0  0  0  0  0  0  0  0  0  0  0
   17.2856   10.2294    0.0000 H   0  0  0  0  0  0  0  0  0  0  0  0
   15.0657   13.7228    0.0000 O   0  0  0  0  0  0  0  0  0  0  0  0
   19.8325   12.4493    0.0000 C   0  0  0  0  0  0  0  0  0  0  0  0
   20.5911   11.2732    0.0000 C   0  0  0  0  0  0  0  0  0  0  0  0
   20.4658   13.6949    0.0000 C   0  0  0  0  0  0  0  0  0  0  0  0
   10.9113   10.5008    0.0000 O   0  0  0  0  0  0  0  0  0  0  0  0
   14.6969   11.1897    0.0000 C   0  0  0  0  0  0  0  0  0  0  0  0
   12.1221    7.0006    0.0000 C   0  0  0  0  0  0  0  0  0  0  0  0
   13.3400    9.0952    0.0000 H   0  0  0  0  0  0  0  0  0  0  0  0
    7.2720    5.6019    0.0000 O   0  0  0  0  0  0  0  0  0  0  0  0
    6.0612    6.2978    0.0000 C   0  0  2  0  0  0  0  0  0  0  0  0
    6.0612    7.6965    0.0000 O   0  0  0  0  0  0  0  0  0  0  0  0
    4.8503    8.3993    0.0000 C   0  0  0  0  0  0  0  0  0  0  0  0
    3.6325    7.6965    0.0000 C   0  0  2  0  0  0  0  0  0  0  0  0
    3.6325    6.2978    0.0000 C   0  0  1  0  0  0  0  0  0  0  0  0
    4.8503    5.6019    0.0000 C   0  0  1  0  0  0  0  0  0  0  0  0
    2.4217    5.6019    0.0000 O   0  0  0  0  0  0  0  0  0  0  0  0
    2.4217    8.3993    0.0000 O   0  0  0  0  0  0  0  0  0  0  0  0
    4.8503    4.2032    0.0000 O   0  0  0  0  0  0  0  0  0  0  0  0
    3.6325    3.5004    0.0000 C   0  0  2  0  0  0  0  0  0  0  0  0
    2.4217    4.2032    0.0000 O   0  0  0  0  0  0  0  0  0  0  0  0
    1.2108    3.5004    0.0000 C   0  0  2  0  0  0  0  0  0  0  0  0
    1.2108    2.1017    0.0000 C   0  0  1  0  0  0  0  0  0  0  0  0
    2.4217    1.3987    0.0000 C   0  0  2  0  0  0  0  0  0  0  0  0
    3.6325    2.1017    0.0000 C   0  0  1  0  0  0  0  0  0  0  0  0
    0.0000    4.1961    0.0000 C   0  0  0  0  0  0  0  0  0  0  0  0
    4.8433    1.3987    0.0000 O   0  0  0  0  0  0  0  0  0  0  0  0
    2.4217    0.0000    0.0000 O   0  0  0  0  0  0  0  0  0  0  0  0
    0.0000    1.3987    0.0000 O   0  0  0  0  0  0  0  0  0  0  0  0
  1  2  1  0  0  0  0
  2  3  1  0  0  0  0
  3  4  1  0  0  0  0
  4  5  1  0  0  0  0
  5  6  1  0  0  0  0
  6  1  1  0  0  0  0
  4  7  2  0  0  0  0
  7  8  1  0  0  0  0
  8  9  1  0  0  0  0
  9 10  1  0  0  0  0
 10  5  1  0  0  0  0
  9 11  1  0  0  0  0
 11 12  1  0  0  0  0
 12 13  1  0  0  0  0
 13 14  1  0  0  0  0
 14 10  1  0  0  0  0
 11 15  1  0  0  0  0
 15 16  1  0  0  0  0
 16 17  1  0  0  0  0
 17 12  1  0  0  0  0
  3 18  1  0  0  0  0
  3 19  1  0  0  0  0
  5 20  1  6  0  0  0
 11 21  1  6  0  0  0
 16 22  1  6  0  0  0
 17 23  1  0  0  0  0
 23 24  1  0  0  0  0
 24 25  1  0  0  0  0
 25 26  2  0  0  0  0
 26 27  1  0  0  0  0
 27 23  1  0  0  0  0
 23 28  1  1  0  0  0
 17 29  1  6  0  0  0
 27 30  2  0  0  0  0
 25 31  1  0  0  0  0
 31 32  1  0  0  0  0
 31 33  1  0  0  0  0
 14 34  2  0  0  0  0
 12 35  1  1  0  0  0
 10 36  1  1  0  0  0
  9 37  1  1  0  0  0
  2 38  1  6  0  0  0
 39 38  1  1  0  0  0
 39 40  1  0  0  0  0
 40 41  1  0  0  0  0
 41 42  1  0  0  0  0
 42 43  1  0  0  0  0
 43 44  1  0  0  0  0
 44 39  1  0  0  0  0
 43 45  1  1  0  0  0
 42 46  1  6  0  0  0
 44 47  1  6  0  0  0
 48 47  1  1  0  0  0
 48 49  1  0  0  0  0
 49 50  1  0  0  0  0
 50 51  1  0  0  0  0
 51 52  1  0  0  0  0
 52 53  1  0  0  0  0
 53 48  1  0  0  0  0
 50 54  1  6  0  0  0
 53 55  1  6  0  0  0
 52 56  1  6  0  0  0
 51 57  1  1  0  0  0
M  END
>  <Mol_ID> (721)
4323

>  <Formula> (721)
C41H62O13

>  <MolWeight> (721)
762.92318

>  <Cat> (721)
S9138

>  <Name> (721)
Picfeltarraenin IA

>  <Form> (721)
free base

>  <CAS> (721)
97230-47-2

$$$$
S9141 Berbamine.cdx
csChFnd80/05071909292D

 45 51  0  0  0  0  0  0  0  0999 V2000
    0.0000    6.8574    0.0000 C   0  0  0  0  0  0  0  0  0  0  0  0
    0.9964    5.8617    0.0000 N   0  0  0  0  0  0  0  0  0  0  0  0
    2.3654    6.2263    0.0000 C   0  0  1  0  0  0  0  0  0  0  0  0
    2.7398    7.5862    0.0000 C   0  0  0  0  0  0  0  0  0  0  0  0
    1.7530    8.5722    0.0000 C   0  0  0  0  0  0  0  0  0  0  0  0
    0.3811    8.2187    0.0000 C   0  0  0  0  0  0  0  0  0  0  0  0
    4.1420    7.8630    0.0000 C   0  0  0  0  0  0  0  0  0  0  0  0
    4.6222    9.2220    0.0000 C   0  0  0  0  0  0  0  0  0  0  0  0
    3.5868   10.2568    0.0000 C   0  0  0  0  0  0  0  0  0  0  0  0
    2.1904    9.9220    0.0000 C   0  0  0  0  0  0  0  0  0  0  0  0
    2.9768   12.5942    0.0000 C   0  0  0  0  0  0  0  0  0  0  0  0
    3.9667   11.6042    0.0000 O   0  0  0  0  0  0  0  0  0  0  0  0
    0.6333    4.5096    0.0000 C   0  0  0  0  0  0  0  0  0  0  0  0
    3.5608    5.5367    0.0000 C   0  0  0  0  0  0  0  0  0  0  0  0
    3.2441    4.1714    0.0000 C   0  0  0  0  0  0  0  0  0  0  0  0
    1.9676    3.5902    0.0000 C   0  0  0  0  0  0  0  0  0  0  0  0
    1.8289    2.1989    0.0000 C   0  0  0  0  0  0  0  0  0  0  0  0
    2.9667    1.3947    0.0000 C   0  0  0  0  0  0  0  0  0  0  0  0
    4.2134    1.9847    0.0000 C   0  0  0  0  0  0  0  0  0  0  0  0
    4.3838    3.3686    0.0000 C   0  0  0  0  0  0  0  0  0  0  0  0
    2.8455    0.0000    0.0000 O   0  0  0  0  0  0  0  0  0  0  0  0
    5.3194    1.2084    0.0000 O   0  0  0  0  0  0  0  0  0  0  0  0
    6.4867    1.8828    0.0000 C   0  0  0  0  0  0  0  0  0  0  0  0
    7.6709    1.1997    0.0000 C   0  0  0  0  0  0  0  0  0  0  0  0
    8.8120    1.8590    0.0000 C   0  0  0  0  0  0  0  0  0  0  0  0
    8.8116    3.1904    0.0000 C   0  0  0  0  0  0  0  0  0  0  0  0
    7.6855    3.9211    0.0000 C   0  0  0  0  0  0  0  0  0  0  0  0
    6.5028    3.2378    0.0000 C   0  0  0  0  0  0  0  0  0  0  0  0
    9.9441    3.9780    0.0000 C   0  0  0  0  0  0  0  0  0  0  0  0
    9.9436    5.3435    0.0000 C   0  0  2  0  0  0  0  0  0  0  0  0
   11.3255    5.7704    0.0000 N   0  0  0  0  0  0  0  0  0  0  0  0
   11.5784    7.0720    0.0000 C   0  0  0  0  0  0  0  0  0  0  0  0
   10.5820    8.0677    0.0000 C   0  0  0  0  0  0  0  0  0  0  0  0
    9.2121    7.6911    0.0000 C   0  0  0  0  0  0  0  0  0  0  0  0
    8.8633    6.3122    0.0000 C   0  0  0  0  0  0  0  0  0  0  0  0
    8.1914    8.7111    0.0000 C   0  0  0  0  0  0  0  0  0  0  0  0
    6.7893    8.4058    0.0000 C   0  0  0  0  0  0  0  0  0  0  0  0
    6.4561    7.0237    0.0000 C   0  0  0  0  0  0  0  0  0  0  0  0
    7.4681    6.0124    0.0000 C   0  0  0  0  0  0  0  0  0  0  0  0
   12.3154    4.7805    0.0000 C   0  0  0  0  0  0  0  0  0  0  0  0
    5.0661    6.8139    0.0000 O   0  0  0  0  0  0  0  0  0  0  0  0
    5.8347    9.9220    0.0000 O   0  0  0  0  0  0  0  0  0  0  0  0
    6.7893    9.8058    0.0000 O   0  0  0  0  0  0  0  0  0  0  0  0
    8.0017   10.5058    0.0000 C   0  0  0  0  0  0  0  0  0  0  0  0
    5.8347   11.3220    0.0000 C   0  0  0  0  0  0  0  0  0  0  0  0
  1  2  1  0  0  0  0
  2  3  1  0  0  0  0
  3  4  1  0  0  0  0
  4  5  1  0  0  0  0
  5  6  1  0  0  0  0
  1  6  1  0  0  0  0
  4  7  2  0  0  0  0
  7  8  1  0  0  0  0
  8  9  2  0  0  0  0
  9 10  1  0  0  0  0
  5 10  2  0  0  0  0
 11 12  1  0  0  0  0
  9 12  1  0  0  0  0
  2 13  1  0  0  0  0
  3 14  1  1  0  0  0
 14 15  1  0  0  0  0
 15 16  2  0  0  0  0
 16 17  1  0  0  0  0
 17 18  2  0  0  0  0
 18 19  1  0  0  0  0
 19 20  2  0  0  0  0
 15 20  1  0  0  0  0
 18 21  1  0  0  0  0
 19 22  1  0  0  0  0
 22 23  1  0  0  0  0
 23 24  2  0  0  0  0
 24 25  1  0  0  0  0
 25 26  2  0  0  0  0
 26 27  1  0  0  0  0
 27 28  2  0  0  0  0
 23 28  1  0  0  0  0
 26 29  1  0  0  0  0
 30 29  1  1  0  0  0
 30 31  1  0  0  0  0
 31 32  1  0  0  0  0
 32 33  1  0  0  0  0
 33 34  1  0  0  0  0
 34 35  1  0  0  0  0
 30 35  1  0  0  0  0
 34 36  2  0  0  0  0
 36 37  1  0  0  0  0
 37 38  2  0  0  0  0
 38 39  1  0  0  0  0
 35 39  2  0  0  0  0
 31 40  1  0  0  0  0
 38 41  1  0  0  0  0
 41  7  1  0  0  0  0
  8 42  1  0  0  0  0
 37 43  1  0  0  0  0
 43 44  1  0  0  0  0
 42 45  1  0  0  0  0
M  END
>  <Mol_ID> (722)
4326

>  <Formula> (722)
C37H40N2O6

>  <MolWeight> (722)
608.7233

>  <Cat> (722)
S9141

>  <Name> (722)
Berbamine

>  <Form> (722)
free base

>  <CAS> (722)
478-61-5

$$$$
S9306 Corynoxeine.cdx
csChFnd80/05071909292D

 29 32  0  0  0  0  0  0  0  0999 V2000
    4.8498    4.2000    0.0000 C   0  0  0  0  0  0  0  0  0  0  0  0
    6.0621    4.9000    0.0000 C   0  0  0  0  0  0  0  0  0  0  0  0
    7.2747    4.2000    0.0000 N   0  0  0  0  0  0  0  0  0  0  0  0
    7.2747    2.8001    0.0000 C   0  0  1  0  0  0  0  0  0  0  0  0
    9.6994    4.2000    0.0000 C   0  0  1  0  0  0  0  0  0  0  0  0
    8.4871    4.9000    0.0000 C   0  0  0  0  0  0  0  0  0  0  0  0
    9.6994    2.8001    0.0000 C   0  0  2  0  0  0  0  0  0  0  0  0
    8.4871    2.1001    0.0000 C   0  0  0  0  0  0  0  0  0  0  0  0
   10.9119    4.9000    0.0000 C   0  0  0  0  0  0  0  0  0  0  0  0
   10.9119    6.3001    0.0000 C   0  0  0  0  0  0  0  0  0  0  0  0
   10.9119    2.0999    0.0000 C   0  0  0  0  0  0  0  0  0  0  0  0
   10.9119    0.7000    0.0000 C   0  0  0  0  0  0  0  0  0  0  0  0
    9.6994    0.0000    0.0000 O   0  0  0  0  0  0  0  0  0  0  0  0
   12.1243    0.0000    0.0000 O   0  0  0  0  0  0  0  0  0  0  0  0
   13.3368    0.7000    0.0000 C   0  0  0  0  0  0  0  0  0  0  0  0
   12.1243    2.8001    0.0000 C   0  0  0  0  0  0  0  0  0  0  0  0
   12.1243    4.2000    0.0000 O   0  0  0  0  0  0  0  0  0  0  0  0
   13.3368    4.9000    0.0000 C   0  0  0  0  0  0  0  0  0  0  0  0
    4.8498    2.8001    0.0000 C   0  0  1  0  0  0  0  0  0  0  0  0
    6.0621    0.7001    0.0000 O   0  0  0  0  0  0  0  0  0  0  0  0
    3.6373    0.7000    0.0000 N   0  0  0  0  0  0  0  0  0  0  0  0
    4.8498    1.4001    0.0000 C   0  0  0  0  0  0  0  0  0  0  0  0
    1.2124    0.7000    0.0000 C   0  0  0  0  0  0  0  0  0  0  0  0
    0.0000    1.4000    0.0000 C   0  0  0  0  0  0  0  0  0  0  0  0
    0.0000    2.7999    0.0000 C   0  0  0  0  0  0  0  0  0  0  0  0
    1.2124    3.5001    0.0000 C   0  0  0  0  0  0  0  0  0  0  0  0
    2.4249    2.8001    0.0000 C   0  0  0  0  0  0  0  0  0  0  0  0
    2.4249    1.4001    0.0000 C   0  0  0  0  0  0  0  0  0  0  0  0
    7.2747    1.4001    0.0000 H   0  0  0  0  0  0  0  0  0  0  0  0
  1  2  1  0  0  0  0
  2  3  1  0  0  0  0
  3  4  1  0  0  0  0
  5  6  1  0  0  0  0
  3  6  1  0  0  0  0
  7  5  1  0  0  0  0
  8  7  1  0  0  0  0
  4  8  1  0  0  0  0
  5  9  1  6  0  0  0
  9 10  2  0  0  0  0
  7 11  1  1  0  0  0
 11 12  1  0  0  0  0
 12 13  2  0  0  0  0
 12 14  1  0  0  0  0
 14 15  1  0  0  0  0
 11 16  2  0  0  0  0
 16 17  1  0  0  0  0
 17 18  1  0  0  0  0
 19  1  1  1  0  0  0
 19  4  1  0  0  0  0
 21 22  1  0  0  0  0
 22 20  2  0  0  0  0
 19 22  1  1  0  0  0
 23 24  1  0  0  0  0
 24 25  2  0  0  0  0
 25 26  1  0  0  0  0
 27 26  2  0  0  0  0
 19 27  1  0  0  0  0
 28 27  1  0  0  0  0
 28 23  2  0  0  0  0
 28 21  1  0  0  0  0
  4 29  1  6  0  0  0
M  END
>  <Mol_ID> (723)
4485

>  <Formula> (723)
C22H26N2O4

>  <MolWeight> (723)
382.45284

>  <Cat> (723)
S9306

>  <Name> (723)
Corynoxeine

>  <Form> (723)
free base

>  <CAS> (723)
630-94-4

$$$$
S5548 7-Hydroxy-4-chromone.cdx
csChFnd80/05071909292D

 12 13  0  0  0  0  0  0  0  0999 V2000
    3.6428    2.1032    0.0000 C   0  0  0  0  0  0  0  0  0  0  0  0
    3.6391    0.7032    0.0000 C   0  0  0  0  0  0  0  0  0  0  0  0
    4.8571    2.8000    0.0000 C   0  0  0  0  0  0  0  0  0  0  0  0
    2.4322    2.8064    0.0000 C   0  0  0  0  0  0  0  0  0  0  0  0
    2.4249    0.0064    0.0000 C   0  0  0  0  0  0  0  0  0  0  0  0
    4.8497    0.0000    0.0000 O   0  0  0  0  0  0  0  0  0  0  0  0
    6.0677    2.0968    0.0000 C   0  0  0  0  0  0  0  0  0  0  0  0
    4.8608    4.2000    0.0000 O   0  0  0  0  0  0  0  0  0  0  0  0
    1.2180    2.1096    0.0000 C   0  0  0  0  0  0  0  0  0  0  0  0
    1.2143    0.7096    0.0000 C   0  0  0  0  0  0  0  0  0  0  0  0
    6.0640    0.6968    0.0000 C   0  0  0  0  0  0  0  0  0  0  0  0
    0.0000    0.0128    0.0000 O   0  0  0  0  0  0  0  0  0  0  0  0
  1  2  1  0  0  0  0
  1  3  1  0  0  0  0
  1  4  2  0  0  0  0
  2  5  2  0  0  0  0
  2  6  1  0  0  0  0
  3  7  1  0  0  0  0
  3  8  2  0  0  0  0
  4  9  1  0  0  0  0
  5 10  1  0  0  0  0
  6 11  1  0  0  0  0
  7 11  2  0  0  0  0
  9 10  2  0  0  0  0
 10 12  1  0  0  0  0
M  END
>  <Mol_ID> (724)
4523

>  <Formula> (724)
C9H6O3

>  <MolWeight> (724)
162.14214

>  <Cat> (724)
S5548

>  <Name> (724)
7-Hydroxy-4-chromone

>  <Target> (724)
Src

>  <Form> (724)
free base

>  <CAS> (724)
59887-89-7

>  <URL> (724)
http://selleckchem.com/products/.html

$$$$
S9042 Wedelolactone.cdx
csChFnd80/05071909292D

 23 26  0  0  0  0  0  0  0  0999 V2000
    4.9691    3.3945    0.0000 C   0  0  0  0  0  0  0  0  0  0  0  0
    5.7936    2.2630    0.0000 C   0  0  0  0  0  0  0  0  0  0  0  0
    5.5368    4.6743    0.0000 C   0  0  0  0  0  0  0  0  0  0  0  0
    7.1857    2.4112    0.0000 C   0  0  0  0  0  0  0  0  0  0  0  0
    3.6382    2.9601    0.0000 C   0  0  0  0  0  0  0  0  0  0  0  0
    4.9722    1.1293    0.0000 O   0  0  0  0  0  0  0  0  0  0  0  0
    3.6401    1.5601    0.0000 C   0  0  0  0  0  0  0  0  0  0  0  0
    7.7534    3.6910    0.0000 C   0  0  0  0  0  0  0  0  0  0  0  0
    6.9290    4.8225    0.0000 O   0  0  0  0  0  0  0  0  0  0  0  0
    8.0101    1.2797    0.0000 C   0  0  0  0  0  0  0  0  0  0  0  0
    2.4249    3.6585    0.0000 C   0  0  0  0  0  0  0  0  0  0  0  0
    2.4286    0.8585    0.0000 C   0  0  0  0  0  0  0  0  0  0  0  0
    9.1455    3.8392    0.0000 C   0  0  0  0  0  0  0  0  0  0  0  0
    1.2134    2.9569    0.0000 C   0  0  0  0  0  0  0  0  0  0  0  0
    9.4023    1.4279    0.0000 C   0  0  0  0  0  0  0  0  0  0  0  0
    1.2153    1.5569    0.0000 C   0  0  0  0  0  0  0  0  0  0  0  0
    4.7124    5.8058    0.0000 O   0  0  0  0  0  0  0  0  0  0  0  0
    9.9700    2.7077    0.0000 C   0  0  0  0  0  0  0  0  0  0  0  0
    7.4424    0.0000    0.0000 O   0  0  0  0  0  0  0  0  0  0  0  0
    0.0000    3.6552    0.0000 O   0  0  0  0  0  0  0  0  0  0  0  0
    0.0038    0.8552    0.0000 O   0  0  0  0  0  0  0  0  0  0  0  0
   11.3621    2.8559    0.0000 O   0  0  0  0  0  0  0  0  0  0  0  0
   12.1865    1.7244    0.0000 C   0  0  0  0  0  0  0  0  0  0  0  0
  2  1  2  0  0  0  0
  3  1  1  0  0  0  0
  5  1  1  0  0  0  0
  4  2  1  0  0  0  0
  6  2  1  0  0  0  0
  9  3  1  0  0  0  0
 17  3  2  0  0  0  0
 10  4  1  0  0  0  0
  4  8  2  0  0  0  0
  7  5  2  0  0  0  0
 11  5  1  0  0  0  0
  6  7  1  0  0  0  0
 12  7  1  0  0  0  0
  8  9  1  0  0  0  0
 13  8  1  0  0  0  0
 15 10  2  0  0  0  0
 19 10  1  0  0  0  0
 14 11  2  0  0  0  0
 16 12  2  0  0  0  0
 18 13  2  0  0  0  0
 20 14  1  0  0  0  0
 16 14  1  0  0  0  0
 15 18  1  0  0  0  0
 21 16  1  0  0  0  0
 22 18  1  0  0  0  0
 23 22  1  0  0  0  0
M  END
>  <Mol_ID> (725)
4598

>  <Formula> (725)
C16H10O7

>  <MolWeight> (725)
314.2464

>  <Cat> (725)
S9042

>  <Name> (725)
Wedelolactone

>  <Form> (725)
free base

>  <CAS> (725)
524-12-9

$$$$
S5241 Lapatinib ditosylate monohydrate.cdx
csChFnd80/05071909292D

 63 66  0  0  0  0  0  0  0  0999 V2000
   18.4104    4.5359    0.0000 C   0  0  0  0  0  0  0  0  0  0  0  0
   18.4104    3.1359    0.0000 C   0  0  0  0  0  0  0  0  0  0  0  0
   19.6189    2.4429    0.0000 C   0  0  0  0  0  0  0  0  0  0  0  0
   20.8271    3.1359    0.0000 C   0  0  0  0  0  0  0  0  0  0  0  0
   20.8271    4.5359    0.0000 C   0  0  0  0  0  0  0  0  0  0  0  0
   19.6189    5.2429    0.0000 C   0  0  0  0  0  0  0  0  0  0  0  0
   19.6189    6.6429    0.0000 S   0  0  0  0  0  0  0  0  0  0  0  0
   19.6189    8.0429    0.0000 O   0  0  0  0  0  0  0  0  0  0  0  0
   21.0189    6.6429    0.0000 O   0  0  0  0  0  0  0  0  0  0  0  0
   18.2189    6.6429    0.0000 O   0  0  0  0  0  0  0  0  0  0  0  0
   19.6189    1.0429    0.0000 C   0  0  0  0  0  0  0  0  0  0  0  0
   22.7011    4.5288    0.0000 C   0  0  0  0  0  0  0  0  0  0  0  0
   22.7011    3.1288    0.0000 C   0  0  0  0  0  0  0  0  0  0  0  0
   23.9093    2.4359    0.0000 C   0  0  0  0  0  0  0  0  0  0  0  0
   25.1176    3.1288    0.0000 C   0  0  0  0  0  0  0  0  0  0  0  0
   25.1176    4.5288    0.0000 C   0  0  0  0  0  0  0  0  0  0  0  0
   23.9093    5.2359    0.0000 C   0  0  0  0  0  0  0  0  0  0  0  0
   23.9093    6.6359    0.0000 S   0  0  0  0  0  0  0  0  0  0  0  0
   23.9093    8.0359    0.0000 O   0  0  0  0  0  0  0  0  0  0  0  0
   25.3093    6.6359    0.0000 O   0  0  0  0  0  0  0  0  0  0  0  0
   22.5093    6.6359    0.0000 O   0  0  0  0  0  0  0  0  0  0  0  0
   23.9093    1.0359    0.0000 C   0  0  0  0  0  0  0  0  0  0  0  0
   22.6975    0.0000    0.0000 O   0  0  0  0  0  0  0  0  0  0  0  0
   10.6433    7.3172    0.0000 C   0  0  0  0  0  0  0  0  0  0  0  0
   10.6433    5.9172    0.0000 C   0  0  0  0  0  0  0  0  0  0  0  0
   11.8557    5.2172    0.0000 C   0  0  0  0  0  0  0  0  0  0  0  0
   11.8557    8.0172    0.0000 C   0  0  0  0  0  0  0  0  0  0  0  0
   13.0682    7.3172    0.0000 C   0  0  0  0  0  0  0  0  0  0  0  0
   13.0682    5.9172    0.0000 C   0  0  0  0  0  0  0  0  0  0  0  0
   14.2806    5.2172    0.0000 N   0  0  0  0  0  0  0  0  0  0  0  0
   15.4931    5.9172    0.0000 C   0  0  0  0  0  0  0  0  0  0  0  0
   15.4931    7.3172    0.0000 N   0  0  0  0  0  0  0  0  0  0  0  0
   14.2806    8.0172    0.0000 C   0  0  0  0  0  0  0  0  0  0  0  0
   14.2806    9.4172    0.0000 N   0  0  0  0  0  0  0  0  0  0  0  0
   15.4931   10.1172    0.0000 C   0  0  0  0  0  0  0  0  0  0  0  0
   15.4931   11.5172    0.0000 C   0  0  0  0  0  0  0  0  0  0  0  0
   16.7055   12.2172    0.0000 C   0  0  0  0  0  0  0  0  0  0  0  0
   16.7055    9.4172    0.0000 C   0  0  0  0  0  0  0  0  0  0  0  0
   17.9179   10.1172    0.0000 C   0  0  0  0  0  0  0  0  0  0  0  0
   17.9179   11.5172    0.0000 C   0  0  0  0  0  0  0  0  0  0  0  0
   19.1304   12.2172    0.0000 O   0  0  0  0  0  0  0  0  0  0  0  0
   20.3428   11.5172    0.0000 C   0  0  0  0  0  0  0  0  0  0  0  0
   21.5552   12.2172    0.0000 C   0  0  0  0  0  0  0  0  0  0  0  0
   21.5552   13.6172    0.0000 C   0  0  0  0  0  0  0  0  0  0  0  0
   22.7677   14.3172    0.0000 C   0  0  0  0  0  0  0  0  0  0  0  0
   23.9801   13.6172    0.0000 C   0  0  0  0  0  0  0  0  0  0  0  0
   23.9801   12.2172    0.0000 C   0  0  0  0  0  0  0  0  0  0  0  0
   22.7677   11.5172    0.0000 C   0  0  0  0  0  0  0  0  0  0  0  0
   16.7055   13.6172    0.0000 Cl  0  0  0  0  0  0  0  0  0  0  0  0
   22.7677   15.7172    0.0000 F   0  0  0  0  0  0  0  0  0  0  0  0
    9.4309    8.0172    0.0000 C   0  0  0  0  0  0  0  0  0  0  0  0
    9.2845    9.4095    0.0000 C   0  0  0  0  0  0  0  0  0  0  0  0
    7.9151    9.7006    0.0000 C   0  0  0  0  0  0  0  0  0  0  0  0
    7.2151    8.4882    0.0000 C   0  0  0  0  0  0  0  0  0  0  0  0
    8.1519    7.4478    0.0000 O   0  0  0  0  0  0  0  0  0  0  0  0
    5.8228    8.3418    0.0000 C   0  0  0  0  0  0  0  0  0  0  0  0
    4.9999    9.4744    0.0000 N   0  0  0  0  0  0  0  0  0  0  0  0
    3.6076    9.3281    0.0000 C   0  0  0  0  0  0  0  0  0  0  0  0
    2.7847   10.4607    0.0000 C   0  0  0  0  0  0  0  0  0  0  0  0
    1.3923   10.3144    0.0000 S   0  0  0  0  0  0  0  0  0  0  0  0
    1.2460   11.7067    0.0000 O   0  0  0  0  0  0  0  0  0  0  0  0
    1.5387    8.9221    0.0000 O   0  0  0  0  0  0  0  0  0  0  0  0
    0.0000   10.1681    0.0000 C   0  0  0  0  0  0  0  0  0  0  0  0
  1  2  1  0  0  0  0
  1  6  2  0  0  0  0
  2  3  2  0  0  0  0
  3  4  1  0  0  0  0
  3 11  1  0  0  0  0
  4  5  2  0  0  0  0
  5  6  1  0  0  0  0
  6  7  1  0  0  0  0
  7  8  1  0  0  0  0
  7  9  2  0  0  0  0
  7 10  2  0  0  0  0
 12 13  1  0  0  0  0
 12 17  2  0  0  0  0
 13 14  2  0  0  0  0
 14 15  1  0  0  0  0
 14 22  1  0  0  0  0
 15 16  2  0  0  0  0
 16 17  1  0  0  0  0
 17 18  1  0  0  0  0
 18 19  1  0  0  0  0
 18 20  2  0  0  0  0
 18 21  2  0  0  0  0
 24 25  1  0  0  0  0
 24 27  2  0  0  0  0
 25 26  2  0  0  0  0
 26 29  1  0  0  0  0
 28 27  1  0  0  0  0
 28 29  2  0  0  0  0
 28 33  1  0  0  0  0
 29 30  1  0  0  0  0
 30 31  2  0  0  0  0
 31 32  1  0  0  0  0
 32 33  2  0  0  0  0
 33 34  1  0  0  0  0
 34 35  1  0  0  0  0
 35 36  2  0  0  0  0
 35 38  1  0  0  0  0
 36 37  1  0  0  0  0
 37 49  1  0  0  0  0
 37 40  2  0  0  0  0
 39 38  2  0  0  0  0
 39 40  1  0  0  0  0
 40 41  1  0  0  0  0
 41 42  1  0  0  0  0
 43 42  1  0  0  0  0
 43 44  2  0  0  0  0
 43 48  1  0  0  0  0
 44 45  1  0  0  0  0
 45 50  1  0  0  0  0
 45 46  2  0  0  0  0
 46 47  1  0  0  0  0
 47 48  2  0  0  0  0
 24 51  1  0  0  0  0
 51 52  2  0  0  0  0
 52 53  1  0  0  0  0
 53 54  2  0  0  0  0
 54 55  1  0  0  0  0
 55 51  1  0  0  0  0
 54 56  1  0  0  0  0
 56 57  1  0  0  0  0
 57 58  1  0  0  0  0
 58 59  1  0  0  0  0
 59 60  1  0  0  0  0
 60 61  2  0  0  0  0
 60 62  2  0  0  0  0
 60 63  1  0  0  0  0
M  END
>  <Mol_ID> (726)
4656

>  <Formula> (726)
C43H44ClFN4O11S3

>  <MolWeight> (726)
943.4760632

>  <Cat> (726)
S5241

>  <Name> (726)
Lapatinib ditosylate monohydrate

>  <Synonyms> (726)
Tykerb Ditosylate

>  <Target> (726)
Others

>  <Form> (726)
ditosylate monohydrate

>  <CAS> (726)
388082-78-8

>  <URL> (726)
http://selleckchem.com/products/.html

$$$$
S5254 Dasatinib hydrochloride.cdx
csChFnd80/05071909292D

 34 36  0  0  0  0  0  0  0  0999 V2000
   13.4033    2.6178    0.0000 S   0  0  0  0  0  0  0  0  0  0  0  0
   12.1244    3.1872    0.0000 C   0  0  0  0  0  0  0  0  0  0  0  0
   12.2707    4.5796    0.0000 N   0  0  0  0  0  0  0  0  0  0  0  0
   13.6401    4.8706    0.0000 C   0  0  0  0  0  0  0  0  0  0  0  0
   14.3401    3.6582    0.0000 C   0  0  0  0  0  0  0  0  0  0  0  0
   15.7324    3.5119    0.0000 C   0  0  0  0  0  0  0  0  0  0  0  0
   16.3019    2.2329    0.0000 O   0  0  0  0  0  0  0  0  0  0  0  0
   16.5553    4.6445    0.0000 N   0  0  0  0  0  0  0  0  0  0  0  0
   10.9119    2.4872    0.0000 N   0  0  0  0  0  0  0  0  0  0  0  0
    8.4870    5.2872    0.0000 C   0  0  0  0  0  0  0  0  0  0  0  0
    9.6995    4.5872    0.0000 N   0  0  0  0  0  0  0  0  0  0  0  0
    9.6995    3.1872    0.0000 C   0  0  0  0  0  0  0  0  0  0  0  0
    8.4870    2.4872    0.0000 C   0  0  0  0  0  0  0  0  0  0  0  0
    7.2746    3.1872    0.0000 C   0  0  0  0  0  0  0  0  0  0  0  0
    7.2746    4.5872    0.0000 N   0  0  0  0  0  0  0  0  0  0  0  0
    8.4870    6.6872    0.0000 C   0  0  0  0  0  0  0  0  0  0  0  0
    6.0622    2.4872    0.0000 N   0  0  0  0  0  0  0  0  0  0  0  0
    6.0622    1.0872    0.0000 C   0  0  0  0  0  0  0  0  0  0  0  0
    4.8497    0.3872    0.0000 C   0  0  0  0  0  0  0  0  0  0  0  0
    3.6373    1.0872    0.0000 N   0  0  0  0  0  0  0  0  0  0  0  0
    3.6373    2.4872    0.0000 C   0  0  0  0  0  0  0  0  0  0  0  0
    4.8497    3.1872    0.0000 C   0  0  0  0  0  0  0  0  0  0  0  0
    2.4249    0.3872    0.0000 C   0  0  0  0  0  0  0  0  0  0  0  0
    1.2124    1.0872    0.0000 C   0  0  0  0  0  0  0  0  0  0  0  0
    0.0000    0.3872    0.0000 O   0  0  0  0  0  0  0  0  0  0  0  0
   17.9477    4.4982    0.0000 C   0  0  0  0  0  0  0  0  0  0  0  0
   18.7706    5.6308    0.0000 C   0  0  0  0  0  0  0  0  0  0  0  0
   20.1629    5.4844    0.0000 C   0  0  0  0  0  0  0  0  0  0  0  0
   20.7323    4.2055    0.0000 C   0  0  0  0  0  0  0  0  0  0  0  0
   19.9094    3.0728    0.0000 C   0  0  0  0  0  0  0  0  0  0  0  0
   18.5171    3.2192    0.0000 C   0  0  0  0  0  0  0  0  0  0  0  0
   17.6942    2.0866    0.0000 C   0  0  0  0  0  0  0  0  0  0  0  0
   18.2011    6.9097    0.0000 Cl  0  0  0  0  0  0  0  0  0  0  0  0
   12.3687    0.0000    0.0000 Cl  0  0  0  0  0  0  0  0  0  0  0  0
  1  2  1  0  0  0  0
  2  3  2  0  0  0  0
  3  4  1  0  0  0  0
  4  5  2  0  0  0  0
  1  5  1  0  0  0  0
  6  7  2  0  0  0  0
  6  8  1  0  0  0  0
  5  6  1  0  0  0  0
 10 11  1  0  0  0  0
 11 12  2  0  0  0  0
 12 13  1  0  0  0  0
 13 14  2  0  0  0  0
 14 15  1  0  0  0  0
 10 15  2  0  0  0  0
 10 16  1  0  0  0  0
 17 18  1  0  0  0  0
 18 19  1  0  0  0  0
 19 20  1  0  0  0  0
 20 21  1  0  0  0  0
 21 22  1  0  0  0  0
 17 22  1  0  0  0  0
 23 24  1  0  0  0  0
 24 25  1  0  0  0  0
 20 23  1  0  0  0  0
 14 17  1  0  0  0  0
  9 12  1  0  0  0  0
  2  9  1  0  0  0  0
 26 27  1  0  0  0  0
 27 28  2  0  0  0  0
 28 29  1  0  0  0  0
 29 30  2  0  0  0  0
 30 31  1  0  0  0  0
 26 31  2  0  0  0  0
 31 32  1  0  0  0  0
 27 33  1  0  0  0  0
  8 26  1  0  0  0  0
M  END
>  <Mol_ID> (727)
4657

>  <Formula> (727)
C22H27Cl2N7O2S

>  <MolWeight> (727)
524.46648

>  <Cat> (727)
S5254

>  <Name> (727)
Dasatinib hydrochloride

>  <Synonyms> (727)
BMS 354825 hydrochloride

>  <Target> (727)
Abl/Src

>  <Form> (727)
hydrochloride 

>  <CAS> (727)
854001-07-3

>  <URL> (727)
http://selleckchem.com/products/.html

$$$$
S5716 Abemaciclib.cdx
csChFnd80/05071909292D

 37 41  0  0  0  0  0  0  0  0999 V2000
   12.1240    4.1999    0.0000 C   0  0  0  0  0  0  0  0  0  0  0  0
   13.3365    3.4999    0.0000 N   0  0  0  0  0  0  0  0  0  0  0  0
   14.5488    4.1999    0.0000 C   0  0  0  0  0  0  0  0  0  0  0  0
   14.5488    5.5999    0.0000 C   0  0  0  0  0  0  0  0  0  0  0  0
   13.3365    6.2998    0.0000 C   0  0  0  0  0  0  0  0  0  0  0  0
   12.1240    5.5999    0.0000 N   0  0  0  0  0  0  0  0  0  0  0  0
   10.9116    3.4999    0.0000 N   0  0  0  0  0  0  0  0  0  0  0  0
   20.3404    2.7999    0.0000 C   0  0  0  0  0  0  0  0  0  0  0  0
   19.5175    1.6674    0.0000 N   0  0  0  0  0  0  0  0  0  0  0  0
   18.1861    2.0999    0.0000 C   0  0  0  0  0  0  0  0  0  0  0  0
   18.1861    3.4999    0.0000 C   0  0  0  0  0  0  0  0  0  0  0  0
   19.5175    3.9326    0.0000 N   0  0  0  0  0  0  0  0  0  0  0  0
   16.9737    1.4000    0.0000 C   0  0  0  0  0  0  0  0  0  0  0  0
   15.7612    2.0999    0.0000 C   0  0  0  0  0  0  0  0  0  0  0  0
   15.7612    3.4999    0.0000 C   0  0  0  0  0  0  0  0  0  0  0  0
   16.9737    4.1999    0.0000 C   0  0  0  0  0  0  0  0  0  0  0  0
   19.9501    5.2640    0.0000 C   0  0  0  0  0  0  0  0  0  0  0  0
   19.0134    6.3044    0.0000 C   0  0  0  0  0  0  0  0  0  0  0  0
   21.3195    5.5551    0.0000 C   0  0  0  0  0  0  0  0  0  0  0  0
   21.7403    2.7999    0.0000 C   0  0  0  0  0  0  0  0  0  0  0  0
   16.9737    0.0000    0.0000 F   0  0  0  0  0  0  0  0  0  0  0  0
   15.7612    6.2998    0.0000 F   0  0  0  0  0  0  0  0  0  0  0  0
    9.6993    4.1999    0.0000 C   0  0  0  0  0  0  0  0  0  0  0  0
    8.4869    3.4999    0.0000 C   0  0  0  0  0  0  0  0  0  0  0  0
    7.2745    4.1998    0.0000 C   0  0  0  0  0  0  0  0  0  0  0  0
    7.2744    5.5999    0.0000 C   0  0  0  0  0  0  0  0  0  0  0  0
    8.4868    6.2999    0.0000 C   0  0  0  0  0  0  0  0  0  0  0  0
    9.6992    5.5999    0.0000 N   0  0  0  0  0  0  0  0  0  0  0  0
    6.0619    6.2998    0.0000 C   0  0  0  0  0  0  0  0  0  0  0  0
    4.8496    5.5999    0.0000 N   0  0  0  0  0  0  0  0  0  0  0  0
    3.6372    6.2998    0.0000 C   0  0  0  0  0  0  0  0  0  0  0  0
    2.4247    5.5999    0.0000 C   0  0  0  0  0  0  0  0  0  0  0  0
    2.4247    4.1999    0.0000 N   0  0  0  0  0  0  0  0  0  0  0  0
    3.6372    3.4999    0.0000 C   0  0  0  0  0  0  0  0  0  0  0  0
    4.8496    4.1999    0.0000 C   0  0  0  0  0  0  0  0  0  0  0  0
    1.2125    3.4999    0.0000 C   0  0  0  0  0  0  0  0  0  0  0  0
    0.0000    4.1999    0.0000 C   0  0  0  0  0  0  0  0  0  0  0  0
  1  2  1  0  0  0  0
  2  3  2  0  0  0  0
  3  4  1  0  0  0  0
  4  5  2  0  0  0  0
  5  6  1  0  0  0  0
  1  6  2  0  0  0  0
  1  7  1  0  0  0  0
  8  9  2  0  0  0  0
  9 10  1  0  0  0  0
 10 11  1  0  0  0  0
 11 12  1  0  0  0  0
  8 12  1  0  0  0  0
 13 14  1  0  0  0  0
 14 15  2  0  0  0  0
 15 16  1  0  0  0  0
 11 16  2  0  0  0  0
 10 13  2  0  0  0  0
 17 18  1  0  0  0  0
 17 19  1  0  0  0  0
 12 17  1  0  0  0  0
  8 20  1  0  0  0  0
 13 21  1  0  0  0  0
  3 15  1  0  0  0  0
  4 22  1  0  0  0  0
 23 24  1  0  0  0  0
 24 25  2  0  0  0  0
 25 26  1  0  0  0  0
 26 27  2  0  0  0  0
 27 28  1  0  0  0  0
 23 28  2  0  0  0  0
 30 31  1  0  0  0  0
 31 32  1  0  0  0  0
 32 33  1  0  0  0  0
 33 34  1  0  0  0  0
 34 35  1  0  0  0  0
 30 35  1  0  0  0  0
 36 37  1  0  0  0  0
 33 36  1  0  0  0  0
 29 30  1  0  0  0  0
 26 29  1  0  0  0  0
  7 23  1  0  0  0  0
M  END
>  <Mol_ID> (728)
4674

>  <Formula> (728)
C27H32F2N8

>  <MolWeight> (728)
506.5933864

>  <Cat> (728)
S5716

>  <Name> (728)
Abemaciclib

>  <Synonyms> (728)
LY2835219

>  <Target> (728)
CDK

>  <Form> (728)
free base

>  <CAS> (728)
1231929-97-7 

>  <URL> (728)
http://selleckchem.com/products/abemaciclib.html

$$$$
S5667 Fruquintinib.cdx
csChFnd80/05071909292D

 29 32  0  0  0  0  0  0  0  0999 V2000
   11.0308    4.4674    0.0000 O   0  0  0  0  0  0  0  0  0  0  0  0
   11.8537    5.6000    0.0000 C   0  0  0  0  0  0  0  0  0  0  0  0
   11.0308    6.7326    0.0000 C   0  0  0  0  0  0  0  0  0  0  0  0
    9.6992    6.3000    0.0000 C   0  0  0  0  0  0  0  0  0  0  0  0
    9.6992    4.9000    0.0000 C   0  0  0  0  0  0  0  0  0  0  0  0
    8.4869    7.0000    0.0000 C   0  0  0  0  0  0  0  0  0  0  0  0
    7.2744    6.3000    0.0000 C   0  0  0  0  0  0  0  0  0  0  0  0
    7.2744    4.9000    0.0000 C   0  0  0  0  0  0  0  0  0  0  0  0
    8.4869    4.2000    0.0000 C   0  0  0  0  0  0  0  0  0  0  0  0
   11.4635    8.0640    0.0000 C   0  0  0  0  0  0  0  0  0  0  0  0
   10.4735    9.0540    0.0000 O   0  0  0  0  0  0  0  0  0  0  0  0
   12.8329    8.3550    0.0000 N   0  0  0  0  0  0  0  0  0  0  0  0
   13.2537    5.6000    0.0000 C   0  0  0  0  0  0  0  0  0  0  0  0
   13.2656    9.6865    0.0000 C   0  0  0  0  0  0  0  0  0  0  0  0
    6.0620    4.2000    0.0000 O   0  0  0  0  0  0  0  0  0  0  0  0
    6.0620    0.0000    0.0000 N   0  0  0  0  0  0  0  0  0  0  0  0
    7.2745    0.7000    0.0000 C   0  0  0  0  0  0  0  0  0  0  0  0
    7.2745    2.1000    0.0000 N   0  0  0  0  0  0  0  0  0  0  0  0
    6.0620    2.8000    0.0000 C   0  0  0  0  0  0  0  0  0  0  0  0
    4.8497    2.1000    0.0000 C   0  0  0  0  0  0  0  0  0  0  0  0
    3.6372    2.8000    0.0000 C   0  0  0  0  0  0  0  0  0  0  0  0
    2.4249    2.1000    0.0000 C   0  0  0  0  0  0  0  0  0  0  0  0
    2.4249    0.7000    0.0000 C   0  0  0  0  0  0  0  0  0  0  0  0
    3.6372    0.0000    0.0000 C   0  0  0  0  0  0  0  0  0  0  0  0
    4.8497    0.7000    0.0000 C   0  0  0  0  0  0  0  0  0  0  0  0
    1.2124    0.0000    0.0000 O   0  0  0  0  0  0  0  0  0  0  0  0
    0.0000    0.7000    0.0000 C   0  0  0  0  0  0  0  0  0  0  0  0
    1.2124    2.8000    0.0000 O   0  0  0  0  0  0  0  0  0  0  0  0
    0.0000    2.1000    0.0000 C   0  0  0  0  0  0  0  0  0  0  0  0
  1  2  1  0  0  0  0
  2  3  2  0  0  0  0
  3  4  1  0  0  0  0
  4  5  1  0  0  0  0
  1  5  1  0  0  0  0
  6  7  1  0  0  0  0
  7  8  2  0  0  0  0
  8  9  1  0  0  0  0
  9  5  2  0  0  0  0
  6  4  2  0  0  0  0
 10 11  2  0  0  0  0
 10 12  1  0  0  0  0
  3 10  1  0  0  0  0
  2 13  1  0  0  0  0
 12 14  1  0  0  0  0
 16 17  1  0  0  0  0
 17 18  2  0  0  0  0
 18 19  1  0  0  0  0
 19 20  2  0  0  0  0
 20 21  1  0  0  0  0
 21 22  2  0  0  0  0
 22 23  1  0  0  0  0
 23 24  2  0  0  0  0
 24 25  1  0  0  0  0
 16 25  2  0  0  0  0
 20 25  1  0  0  0  0
 26 27  1  0  0  0  0
 23 26  1  0  0  0  0
 28 29  1  0  0  0  0
 22 28  1  0  0  0  0
 15 19  1  0  0  0  0
  8 15  1  0  0  0  0
M  END
>  <Mol_ID> (729)
4681

>  <Formula> (729)
C21H19N3O5

>  <MolWeight> (729)
393.39266

>  <Cat> (729)
S5667

>  <Name> (729)
Fruquintinib

>  <Target> (729)
VEGFRs

>  <CAS> (729)
1194506-26-7

>  <URL> (729)
https://www.selleckchem.com/products/fruquintinib.html

$$$$

csChFnd80/05071909292D

 36 41  0  0  0  0  0  0  0  0999 V2000
    2.4138    7.0864    0.0000 C   0  0  0  0  0  0  0  0  0  0  0  0
    2.4138    5.6864    0.0000 C   0  0  0  0  0  0  0  0  0  0  0  0
    3.6262    4.9864    0.0000 C   0  0  0  0  0  0  0  0  0  0  0  0
    4.8387    5.6864    0.0000 C   0  0  0  0  0  0  0  0  0  0  0  0
    4.8387    7.0864    0.0000 C   0  0  0  0  0  0  0  0  0  0  0  0
    3.6262    7.7864    0.0000 C   0  0  0  0  0  0  0  0  0  0  0  0
    6.1701    5.2538    0.0000 C   0  0  0  0  0  0  0  0  0  0  0  0
    6.9930    6.3864    0.0000 C   0  0  0  0  0  0  0  0  0  0  0  0
    6.1701    7.5191    0.0000 N   0  0  0  0  0  0  0  0  0  0  0  0
    6.7396    3.9749    0.0000 C   0  0  0  0  0  0  0  0  0  0  0  0
    8.1319    3.8285    0.0000 C   0  0  0  0  0  0  0  0  0  0  0  0
    8.9548    4.9611    0.0000 C   0  0  0  0  0  0  0  0  0  0  0  0
    8.3854    6.2401    0.0000 C   0  0  0  0  0  0  0  0  0  0  0  0
    8.7013    2.5496    0.0000 C   0  0  0  0  0  0  0  0  0  0  0  0
   10.0937    2.4032    0.0000 C   0  0  0  0  0  0  0  0  0  0  0  0
   10.9166    3.5358    0.0000 C   0  0  0  0  0  0  0  0  0  0  0  0
   10.3471    4.8148    0.0000 C   0  0  0  0  0  0  0  0  0  0  0  0
    9.2054    7.3688    0.0000 C   0  0  0  0  0  0  0  0  0  0  0  0
    7.8179    7.5146    0.0000 C   0  0  0  0  0  0  0  0  0  0  0  0
    5.9195    2.8462    0.0000 O   0  0  0  0  0  0  0  0  0  0  0  0
   10.6611    1.1287    0.0000 C   0  0  0  0  0  0  0  0  0  0  0  0
    9.8411    0.0000    0.0000 C   0  0  0  0  0  0  0  0  0  0  0  0
   12.3041    3.3900    0.0000 N   0  0  0  0  0  0  0  0  0  0  0  0
   12.8735    2.1110    0.0000 C   0  0  0  0  0  0  0  0  0  0  0  0
   14.2658    1.9647    0.0000 C   0  0  0  0  0  0  0  0  0  0  0  0
   15.0887    3.0973    0.0000 C   0  0  0  0  0  0  0  0  0  0  0  0
   14.5193    4.3763    0.0000 C   0  0  0  0  0  0  0  0  0  0  0  0
   13.1270    4.5226    0.0000 C   0  0  0  0  0  0  0  0  0  0  0  0
   16.4762    2.9515    0.0000 N   0  0  0  0  0  0  0  0  0  0  0  0
   17.0456    1.6725    0.0000 C   0  0  0  0  0  0  0  0  0  0  0  0
   18.4380    1.5262    0.0000 C   0  0  0  0  0  0  0  0  0  0  0  0
   19.2609    2.6588    0.0000 O   0  0  0  0  0  0  0  0  0  0  0  0
   18.6914    3.9378    0.0000 C   0  0  0  0  0  0  0  0  0  0  0  0
   17.2991    4.0841    0.0000 C   0  0  0  0  0  0  0  0  0  0  0  0
    1.2056    7.7840    0.0000 C   0  0  0  0  0  0  0  0  0  0  0  0
    0.0000    8.4792    0.0000 N   0  0  0  0  0  0  0  0  0  0  0  0
  1  2  2  0  0  0  0
  2  3  1  0  0  0  0
  3  4  2  0  0  0  0
  4  5  1  0  0  0  0
  5  6  2  0  0  0  0
  6  1  1  0  0  0  0
  4  7  1  0  0  0  0
  7  8  2  0  0  0  0
  8  9  1  0  0  0  0
  9  5  1  0  0  0  0
  7 10  1  0  0  0  0
 10 11  1  0  0  0  0
 11 12  2  0  0  0  0
 12 13  1  0  0  0  0
 13  8  1  0  0  0  0
 11 14  1  0  0  0  0
 14 15  2  0  0  0  0
 15 16  1  0  0  0  0
 16 17  2  0  0  0  0
 17 12  1  0  0  0  0
 13 18  1  0  0  0  0
 13 19  1  0  0  0  0
 10 20  2  0  0  0  0
 15 21  1  0  0  0  0
 21 22  1  0  0  0  0
 16 23  1  0  0  0  0
 23 24  1  0  0  0  0
 24 25  1  0  0  0  0
 25 26  1  0  0  0  0
 26 27  1  0  0  0  0
 27 28  1  0  0  0  0
 28 23  1  0  0  0  0
 26 29  1  0  0  0  0
 29 30  1  0  0  0  0
 30 31  1  0  0  0  0
 31 32  1  0  0  0  0
 32 33  1  0  0  0  0
 33 34  1  0  0  0  0
 34 29  1  0  0  0  0
  1 35  1  0  0  0  0
 35 36  3  0  0  0  0
M  END
>  <Mol_ID> (730)
4686

>  <Formula> (730)
C30H34N4O2

>  <MolWeight> (730)
482.61656

>  <Cat> (730)
S2762

>  <Name> (730)
Alectinib (CH5424802)

>  <Synonyms> (730)
AF-802,RG-7853

>  <Target> (730)
ALK

>  <Form> (730)
Free Base

>  <CAS> (730)
1256580-46-7

>  <URL> (730)
http://www.selleckchem.com/products/ch5424802.html

$$$$

csChFnd80/05071909292D

 42 44  0  0  0  0  0  0  0  0999 V2000
    2.2264    4.2000    0.0000 C   0  0  0  0  0  0  0  0  0  0  0  0
    2.2264    2.8000    0.0000 C   0  0  0  0  0  0  0  0  0  0  0  0
    3.4388    2.1000    0.0000 N   0  0  0  0  0  0  0  0  0  0  0  0
    4.6513    2.8000    0.0000 C   0  0  0  0  0  0  0  0  0  0  0  0
    4.6513    4.2000    0.0000 N   0  0  0  0  0  0  0  0  0  0  0  0
    3.4388    4.9000    0.0000 C   0  0  0  0  0  0  0  0  0  0  0  0
    3.4388    6.3000    0.0000 C   0  0  0  0  0  0  0  0  0  0  0  0
    5.8637    2.1000    0.0000 N   0  0  0  0  0  0  0  0  0  0  0  0
    7.0761    2.8000    0.0000 C   0  0  0  0  0  0  0  0  0  0  0  0
    4.5714    7.1229    0.0000 C   0  0  0  0  0  0  0  0  0  0  0  0
    4.1388    8.4544    0.0000 N   0  0  0  0  0  0  0  0  0  0  0  0
    2.7388    8.4544    0.0000 C   0  0  0  0  0  0  0  0  0  0  0  0
    2.3062    7.1229    0.0000 C   0  0  0  0  0  0  0  0  0  0  0  0
    1.8020    9.4948    0.0000 C   0  0  0  0  0  0  0  0  0  0  0  0
    0.4326    9.2037    0.0000 C   0  0  0  0  0  0  0  0  0  0  0  0
    0.0000    7.8722    0.0000 C   0  0  0  0  0  0  0  0  0  0  0  0
    0.9368    6.8318    0.0000 C   0  0  0  0  0  0  0  0  0  0  0  0
    8.2886    2.1000    0.0000 C   0  0  0  0  0  0  0  0  0  0  0  0
    9.5010    2.8000    0.0000 C   0  0  0  0  0  0  0  0  0  0  0  0
    9.5010    4.2000    0.0000 C   0  0  0  0  0  0  0  0  0  0  0  0
    8.2886    4.9000    0.0000 C   0  0  0  0  0  0  0  0  0  0  0  0
    7.0761    4.2000    0.0000 C   0  0  0  0  0  0  0  0  0  0  0  0
    8.2886    6.3000    0.0000 N   0  0  0  0  0  0  0  0  0  0  0  0
    8.2886    0.7000    0.0000 O   0  0  0  0  0  0  0  0  0  0  0  0
    7.0761    0.0000    0.0000 C   0  0  0  0  0  0  0  0  0  0  0  0
   10.7134    4.9000    0.0000 N   0  0  0  0  0  0  0  0  0  0  0  0
   11.9259    4.2000    0.0000 C   0  0  0  0  0  0  0  0  0  0  0  0
   10.7134    6.3000    0.0000 C   0  0  0  0  0  0  0  0  0  0  0  0
   11.9259    2.8000    0.0000 C   0  0  0  0  0  0  0  0  0  0  0  0
   13.1383    2.1000    0.0000 N   0  0  0  0  0  0  0  0  0  0  0  0
   13.1383    0.7000    0.0000 C   0  0  0  0  0  0  0  0  0  0  0  0
    7.0761    7.0000    0.0000 C   0  0  0  0  0  0  0  0  0  0  0  0
    7.0761    8.4000    0.0000 C   0  0  0  0  0  0  0  0  0  0  0  0
    5.8637    6.3000    0.0000 O   0  0  0  0  0  0  0  0  0  0  0  0
    8.2886    9.1000    0.0000 C   0  0  0  0  0  0  0  0  0  0  0  0
   14.3465    2.7976    0.0000 C   0  0  0  0  0  0  0  0  0  0  0  0
    4.9589    9.5831    0.0000 C   0  0  0  0  0  0  0  0  0  0  0  0
   13.9800    5.9375    0.0000 C   0  0  0  0  0  0  0  0  0  0  0  0
   15.3800    5.9375    0.0000 S   0  0  0  0  0  0  0  0  0  0  0  0
   15.3800    7.3375    0.0000 O   0  0  0  0  0  0  0  0  0  0  0  0
   15.3800    4.5375    0.0000 O   0  0  0  0  0  0  0  0  0  0  0  0
   16.7800    5.9375    0.0000 O   0  0  0  0  0  0  0  0  0  0  0  0
  1  2  2  0  0  0  0
  2  3  1  0  0  0  0
  3  4  2  0  0  0  0
  4  5  1  0  0  0  0
  5  6  2  0  0  0  0
  6  1  1  0  0  0  0
  6  7  1  0  0  0  0
  4  8  1  0  0  0  0
  8  9  1  0  0  0  0
  7 10  2  0  0  0  0
 10 11  1  0  0  0  0
 11 12  1  0  0  0  0
 12 13  2  0  0  0  0
 13  7  1  0  0  0  0
 12 14  1  0  0  0  0
 14 15  2  0  0  0  0
 15 16  1  0  0  0  0
 16 17  2  0  0  0  0
 17 13  1  0  0  0  0
  9 18  2  0  0  0  0
 18 19  1  0  0  0  0
 19 20  2  0  0  0  0
 20 21  1  0  0  0  0
 21 22  2  0  0  0  0
 22  9  1  0  0  0  0
 21 23  1  0  0  0  0
 18 24  1  0  0  0  0
 24 25  1  0  0  0  0
 20 26  1  0  0  0  0
 26 27  1  0  0  0  0
 26 28  1  0  0  0  0
 27 29  1  0  0  0  0
 29 30  1  0  0  0  0
 30 31  1  0  0  0  0
 23 32  1  0  0  0  0
 32 33  1  0  0  0  0
 32 34  2  0  0  0  0
 33 35  2  0  0  0  0
 30 36  1  0  0  0  0
 11 37  1  0  0  0  0
 38 39  1  0  0  0  0
 39 40  2  0  0  0  0
 39 41  2  0  0  0  0
 39 42  1  0  0  0  0
M  END
>  <Mol_ID> (731)
4718

>  <Formula> (731)
C29H37N7O5S

>  <MolWeight> (731)
595.71298

>  <Cat> (731)
S5078

>  <Name> (731)
Osimertinib mesylate

>  <Synonyms> (731)
AZD9291 mesylate

>  <Target> (731)
EGFR

>  <Form> (731)
mesylate

>  <CAS> (731)
1421373-66-1

>  <URL> (731)
http://www.selleckchem.com/products/osimertinib-mesylate.html

$$$$

csChFnd80/05071909292D

 31 33  0  0  0  0  0  0  0  0999 V2000
    1.2817    7.7476    0.0000 C   0  0  0  0  0  0  0  0  0  0  0  0
    2.5652    8.3071    0.0000 C   0  0  0  0  0  0  0  0  0  0  0  0
    0.0000    7.1906    0.0000 N   0  0  0  0  0  0  0  0  0  0  0  0
    5.6454    7.7618    0.0000 N   0  0  0  0  0  0  0  0  0  0  0  0
    4.5166    8.5976    0.0000 C   0  0  0  0  0  0  0  0  0  0  0  0
    3.6846    7.4705    0.0000 C   0  0  0  0  0  0  0  0  0  0  0  0
    4.8127    6.6375    0.0000 C   0  0  0  0  0  0  0  0  0  0  0  0
    2.8500    6.3537    0.0000 N   0  0  0  0  0  0  0  0  0  0  0  0
    1.4447    6.3641    0.0000 N   0  0  0  0  0  0  0  0  0  0  0  0
    1.0035    5.0329    0.0000 C   0  0  0  0  0  0  0  0  0  0  0  0
    2.1285    4.2020    0.0000 C   0  0  0  0  0  0  0  0  0  0  0  0
    3.2722    5.0199    0.0000 C   0  0  0  0  0  0  0  0  0  0  0  0
    0.8866    0.7083    0.0000 C   0  0  0  0  0  0  0  0  0  0  0  0
    2.0969    0.0000    0.0000 N   0  0  0  0  0  0  0  0  0  0  0  0
    3.3154    0.6940    0.0000 C   0  0  0  0  0  0  0  0  0  0  0  0
    3.3237    2.0963    0.0000 C   0  0  0  0  0  0  0  0  0  0  0  0
    2.1180    2.8046    0.0000 C   0  0  0  0  0  0  0  0  0  0  0  0
    0.8948    2.1106    0.0000 N   0  0  0  0  0  0  0  0  0  0  0  0
    4.6465    0.2528    0.0000 N   0  0  0  0  0  0  0  0  0  0  0  0
    4.6599    2.5218    0.0000 C   0  0  0  0  0  0  0  0  0  0  0  0
    5.4775    1.3825    0.0000 C   0  0  0  0  0  0  0  0  0  0  0  0
    7.0270    7.9616    0.0000 S   0  0  0  0  0  0  0  0  0  0  0  0
    6.8270    9.3447    0.0000 O   0  0  0  0  0  0  0  0  0  0  0  0
    7.2270    6.5786    0.0000 O   0  0  0  0  0  0  0  0  0  0  0  0
    8.4115    8.1618    0.0000 C   0  0  0  0  0  0  0  0  0  0  0  0
    8.9308    9.4620    0.0000 C   0  0  0  0  0  0  0  0  0  0  0  0
   10.0939    3.4287    0.0000 P   0  0  0  0  0  0  0  0  0  0  0  0
    8.6965    3.4287    0.0000 O   0  0  0  0  0  0  0  0  0  0  0  0
   10.0939    4.8262    0.0000 O   0  0  0  0  0  0  0  0  0  0  0  0
   11.4914    3.4287    0.0000 O   0  0  0  0  0  0  0  0  0  0  0  0
   10.0939    2.0313    0.0000 O   0  0  0  0  0  0  0  0  0  0  0  0
  1  2  1  0  0  0  0
  1  3  3  0  0  0  0
  4  5  1  0  0  0  0
  5  6  1  0  0  0  0
  6  7  1  0  0  0  0
  4  7  1  0  0  0  0
  8  9  1  0  0  0  0
  9 10  2  0  0  0  0
 10 11  1  0  0  0  0
 11 12  2  0  0  0  0
  8 12  1  0  0  0  0
 13 14  2  0  0  0  0
 14 15  1  0  0  0  0
 15 16  2  0  0  0  0
 16 17  1  0  0  0  0
 17 18  2  0  0  0  0
 13 18  1  0  0  0  0
 20 21  2  0  0  0  0
 19 21  1  0  0  0  0
 15 19  1  0  0  0  0
 16 20  1  0  0  0  0
 11 17  1  0  0  0  0
  6  8  1  0  0  0  0
 22 23  2  0  0  0  0
 22 24  2  0  0  0  0
 25 26  1  0  0  0  0
 22 25  1  0  0  0  0
  4 22  1  0  0  0  0
  2  6  1  0  0  0  0
 27 28  2  0  0  0  0
 27 29  1  0  0  0  0
 27 30  1  0  0  0  0
 27 31  1  0  0  0  0
M  END
>  <Mol_ID> (732)
4786

>  <Formula> (732)
C16H20N7O6PS

>  <MolWeight> (732)
469.412061

>  <Cat> (732)
S5754

>  <Name> (732)
Baricitinib phosphate

>  <Synonyms> (732)
INCB-028050 phosphate, LY-3009104 phosphate 

>  <Target> (732)
JAK

>  <Form> (732)
phosphate

>  <CAS> (732)
1187595-84-1

>  <URL> (732)
http://www.selleckchem.com/products/baricitinib-phosphate.html

$$$$

csChFnd80/05071909292D

 28 31  0  0  0  0  0  0  0  0999 V2000
    1.4136    0.5741    0.0000 C   0  0  0  0  0  0  0  0  0  0  0  0
    1.2724    1.9670    0.0000 C   0  0  0  0  0  0  0  0  0  0  0  0
    2.4081    2.7858    0.0000 C   0  0  0  0  0  0  0  0  0  0  0  0
    3.6849    2.2116    0.0000 C   0  0  0  0  0  0  0  0  0  0  0  0
    3.8261    0.8187    0.0000 C   0  0  0  0  0  0  0  0  0  0  0  0
    2.6905    0.0000    0.0000 C   0  0  0  0  0  0  0  0  0  0  0  0
    0.0000    2.5392    0.0000 Cl  0  0  0  0  0  0  0  0  0  0  0  0
    4.8166    3.0274    0.0000 C   0  0  0  0  0  0  0  0  0  0  0  0
    4.8219    4.4274    0.0000 C   0  0  0  0  0  0  0  0  0  0  0  0
    6.1549    4.8552    0.0000 C   0  0  0  0  0  0  0  0  0  0  0  0
    6.9736    3.7170    0.0000 C   0  0  0  0  0  0  0  0  0  0  0  0
    6.1466    2.5899    0.0000 O   0  0  0  0  0  0  0  0  0  0  0  0
    8.3688    3.7170    0.0000 C   0  0  0  0  0  0  0  0  0  0  0  0
    9.0652    4.9234    0.0000 N   0  0  0  0  0  0  0  0  0  0  0  0
   10.4659    4.9234    0.0000 C   0  0  0  0  0  0  0  0  0  0  0  0
    9.0674    2.5069    0.0000 O   0  0  0  0  0  0  0  0  0  0  0  0
   11.1614    3.7001    0.0000 C   0  0  0  0  0  0  0  0  0  0  0  0
   12.5613    3.6947    0.0000 C   0  0  0  0  0  0  0  0  0  0  0  0
   13.2658    4.9020    0.0000 C   0  0  0  0  0  0  0  0  0  0  0  0
   12.5704    6.1196    0.0000 C   0  0  0  0  0  0  0  0  0  0  0  0
   11.1704    6.1249    0.0000 C   0  0  0  0  0  0  0  0  0  0  0  0
   14.6610    4.9020    0.0000 C   0  0  0  0  0  0  0  0  0  0  0  0
   15.3597    3.6919    0.0000 N   0  0  0  0  0  0  0  0  0  0  0  0
   16.7541    3.6834    0.0000 C   0  0  0  0  0  0  0  0  0  0  0  0
   17.4496    2.4684    0.0000 C   0  0  0  0  0  0  0  0  0  0  0  0
   16.7450    1.2586    0.0000 O   0  0  0  0  0  0  0  0  0  0  0  0
   15.3450    1.2638    0.0000 C   0  0  0  0  0  0  0  0  0  0  0  0
   14.6497    2.4788    0.0000 C   0  0  0  0  0  0  0  0  0  0  0  0
  1  2  1  0  0  0  0
  2  3  2  0  0  0  0
  3  4  1  0  0  0  0
  4  5  2  0  0  0  0
  5  6  1  0  0  0  0
  6  1  2  0  0  0  0
  2  7  1  0  0  0  0
  4  8  1  0  0  0  0
  8  9  2  0  0  0  0
  9 10  1  0  0  0  0
 10 11  2  0  0  0  0
 11 12  1  0  0  0  0
 12  8  1  0  0  0  0
 13 11  1  0  0  0  0
 14 13  1  0  0  0  0
 15 14  1  0  0  0  0
 13 16  2  0  0  0  0
 15 17  2  0  0  0  0
 17 18  1  0  0  0  0
 18 19  2  0  0  0  0
 19 20  1  0  0  0  0
 20 21  2  0  0  0  0
 21 15  1  0  0  0  0
 19 22  1  0  0  0  0
 22 23  1  0  0  0  0
 23 24  1  0  0  0  0
 24 25  1  0  0  0  0
 25 26  1  0  0  0  0
 26 27  1  0  0  0  0
 27 28  1  0  0  0  0
 28 23  1  0  0  0  0
M  END
>  <Mol_ID> (733)
4816

>  <Formula> (733)
C22H21ClN2O3

>  <MolWeight> (733)
396.86674

>  <Cat> (733)
S5792

>  <Name> (733)
CID 2011756

>  <Synonyms> (733)
N/A

>  <Target> (733)
Serine/threonin kina

>  <Form> (733)
Free Base

>  <CAS> (733)
638156-11-3

>  <URL> (733)
http://www.selleckchem.com/products/cid-2011756.html

$$$$

csChFnd80/05071909292D

 28 31  0  0  0  0  0  0  0  0999 V2000
    3.6373    7.0000    0.0000 C   0  0  0  0  0  0  0  0  0  0  0  0
    2.4249    6.3000    0.0000 C   0  0  0  0  0  0  0  0  0  0  0  0
    8.4870    7.0000    0.0000 C   0  0  0  0  0  0  0  0  0  0  0  0
    9.8185    6.5674    0.0000 N   0  0  0  0  0  0  0  0  0  0  0  0
    2.4249    4.9000    0.0000 C   0  0  0  0  0  0  0  0  0  0  0  0
    8.4870    8.4000    0.0000 C   0  0  0  0  0  0  0  0  0  0  0  0
    4.8497    6.3000    0.0000 N   0  0  0  0  0  0  0  0  0  0  0  0
    9.8185    8.8326    0.0000 C   0  0  0  0  0  0  0  0  0  0  0  0
    7.2746    6.3000    0.0000 C   0  0  0  0  0  0  0  0  0  0  0  0
    3.6373    4.2000    0.0000 N   0  0  0  0  0  0  0  0  0  0  0  0
    7.2746    9.1000    0.0000 C   0  0  0  0  0  0  0  0  0  0  0  0
    6.0622    7.0000    0.0000 C   0  0  0  0  0  0  0  0  0  0  0  0
    1.2124    4.2000    0.0000 N   0  0  0  0  0  0  0  0  0  0  0  0
   10.6414    7.7000    0.0000 C   0  0  0  0  0  0  0  0  0  0  0  0
    3.6373    8.4000    0.0000 O   0  0  0  0  0  0  0  0  0  0  0  0
    7.2746    0.7000    0.0000 N   0  0  0  0  0  0  0  0  0  0  0  0
    6.0622    8.4000    0.0000 C   0  0  0  0  0  0  0  0  0  0  0  0
    3.6373    2.8000    0.0000 C   0  0  0  0  0  0  0  0  0  0  0  0
    1.2124    7.0000    0.0000 C   0  0  0  0  0  0  0  0  0  0  0  0
    4.8497    2.1000    0.0000 C   0  0  0  0  0  0  0  0  0  0  0  0
   11.0310    9.5326    0.0000 C   0  0  0  0  0  0  0  0  0  0  0  0
    9.2491   10.1116    0.0000 C   0  0  0  0  0  0  0  0  0  0  0  0
    0.0000    4.9000    0.0000 C   0  0  0  0  0  0  0  0  0  0  0  0
    6.0622    0.0000    0.0000 C   0  0  0  0  0  0  0  0  0  0  0  0
    7.2746    2.1000    0.0000 C   0  0  0  0  0  0  0  0  0  0  0  0
    4.8497    0.7000    0.0000 C   0  0  0  0  0  0  0  0  0  0  0  0
    6.0622    2.8000    0.0000 C   0  0  0  0  0  0  0  0  0  0  0  0
    0.0000    6.3000    0.0000 C   0  0  0  0  0  0  0  0  0  0  0  0
  2  1  1  0  0  0  0
  7  1  1  0  0  0  0
 15  1  2  0  0  0  0
  5  2  2  0  0  0  0
 19  2  1  0  0  0  0
  3  9  2  0  0  0  0
  4  3  1  0  0  0  0
  6  3  1  0  0  0  0
 14  4  1  0  0  0  0
 10  5  1  0  0  0  0
 13  5  1  0  0  0  0
  6 11  2  0  0  0  0
  8  6  1  0  0  0  0
 12  7  1  0  0  0  0
 21  8  1  0  0  0  0
 22  8  1  0  0  0  0
 14  8  1  0  0  0  0
  9 12  1  0  0  0  0
 18 10  1  0  0  0  0
 11 17  1  0  0  0  0
 17 12  2  0  0  0  0
 13 23  2  0  0  0  0
 16 25  2  0  0  0  0
 24 16  1  0  0  0  0
 20 18  1  0  0  0  0
 28 19  2  0  0  0  0
 26 20  1  0  0  0  0
 27 20  2  0  0  0  0
 23 28  1  0  0  0  0
 24 26  2  0  0  0  0
 25 27  1  0  0  0  0
M  END
>  <Mol_ID> (734)
4817

>  <Formula> (734)
C22H23N5O

>  <MolWeight> (734)
373.45092

>  <Cat> (734)
S5793

>  <Name> (734)
Motesanib (AMG-706)

>  <Synonyms> (734)
N/A

>  <Target> (734)
VEGFR

>  <Form> (734)
Free Base

>  <CAS> (734)
453562-69-1

>  <URL> (734)
http://www.selleckchem.com/products/motesanib-amg-706.html

$$$$

csChFnd80/05071909292D

 30 34  0  0  0  0  0  0  0  0999 V2000
    8.3150    4.9000    0.0000 N   0  0  0  0  0  0  0  0  0  0  0  0
    7.1026    4.2000    0.0000 C   0  0  0  0  0  0  0  0  0  0  0  0
    7.1026    2.8000    0.0000 N   0  0  0  0  0  0  0  0  0  0  0  0
    8.3150    2.1000    0.0000 C   0  0  0  0  0  0  0  0  0  0  0  0
    9.5275    2.8000    0.0000 C   0  0  0  0  0  0  0  0  0  0  0  0
   10.7399    2.1000    0.0000 C   0  0  0  0  0  0  0  0  0  0  0  0
   11.9523    2.8000    0.0000 C   0  0  0  0  0  0  0  0  0  0  0  0
   11.9523    4.2000    0.0000 C   0  0  0  0  0  0  0  0  0  0  0  0
   10.7399    4.9000    0.0000 C   0  0  0  0  0  0  0  0  0  0  0  0
    9.5275    4.2000    0.0000 C   0  0  0  0  0  0  0  0  0  0  0  0
    8.3150    0.7000    0.0000 O   0  0  0  0  0  0  0  0  0  0  0  0
    5.8901    4.9000    0.0000 C   0  0  2  0  0  0  0  0  0  0  0  0
    5.8901    6.3000    0.0000 C   0  0  0  0  0  0  0  0  0  0  0  0
    4.6777    4.2000    0.0000 N   0  0  0  0  0  0  0  0  0  0  0  0
    1.9618    2.8306    0.0000 N   0  0  0  0  0  0  0  0  0  0  0  0
    0.5694    2.6843    0.0000 C   0  0  0  0  0  0  0  0  0  0  0  0
    0.0000    3.9632    0.0000 N   0  0  0  0  0  0  0  0  0  0  0  0
    1.0404    4.9000    0.0000 C   0  0  0  0  0  0  0  0  0  0  0  0
    1.0404    6.3000    0.0000 N   0  0  0  0  0  0  0  0  0  0  0  0
    2.2528    7.0000    0.0000 C   0  0  0  0  0  0  0  0  0  0  0  0
    3.4653    6.3000    0.0000 N   0  0  0  0  0  0  0  0  0  0  0  0
    3.4653    4.9000    0.0000 C   0  0  0  0  0  0  0  0  0  0  0  0
    2.2528    4.2000    0.0000 C   0  0  0  0  0  0  0  0  0  0  0  0
    5.8901    2.1000    0.0000 C   0  0  0  0  0  0  0  0  0  0  0  0
    4.6777    2.8000    0.0000 C   0  0  0  0  0  0  0  0  0  0  0  0
    3.4653    2.1000    0.0000 C   0  0  0  0  0  0  0  0  0  0  0  0
    3.4653    0.7000    0.0000 C   0  0  0  0  0  0  0  0  0  0  0  0
    4.6777    0.0000    0.0000 C   0  0  0  0  0  0  0  0  0  0  0  0
    5.8901    0.7000    0.0000 C   0  0  0  0  0  0  0  0  0  0  0  0
   13.1648    2.1000    0.0000 F   0  0  0  0  0  0  0  0  0  0  0  0
  1  2  2  0  0  0  0
  2  3  1  0  0  0  0
  3  4  1  0  0  0  0
  4  5  1  0  0  0  0
  5  6  1  0  0  0  0
  6  7  2  0  0  0  0
  7  8  1  0  0  0  0
  8  9  2  0  0  0  0
  9 10  1  0  0  0  0
  1 10  1  0  0  0  0
  5 10  2  0  0  0  0
  4 11  2  0  0  0  0
 12 13  1  1  0  0  0
 15 16  1  0  0  0  0
 16 17  2  0  0  0  0
 17 18  1  0  0  0  0
 18 19  1  0  0  0  0
 19 20  2  0  0  0  0
 20 21  1  0  0  0  0
 21 22  2  0  0  0  0
 22 23  1  0  0  0  0
 15 23  1  0  0  0  0
 18 23  2  0  0  0  0
 14 22  1  0  0  0  0
 12 14  1  0  0  0  0
  2 12  1  0  0  0  0
 24 25  1  0  0  0  0
 25 26  2  0  0  0  0
 26 27  1  0  0  0  0
 27 28  2  0  0  0  0
 28 29  1  0  0  0  0
 24 29  2  0  0  0  0
  3 24  1  0  0  0  0
  7 30  1  0  0  0  0
M  END
>  <Mol_ID> (735)
4836

>  <Formula> (735)
C21H16FN7O

>  <MolWeight> (735)
401.3964432

>  <Cat> (735)
S5818

>  <Name> (735)
acalisib (GS-9820)

>  <Synonyms> (735)
CAL-120

>  <Target> (735)
PI3K

>  <Form> (735)
Free Base

>  <CAS> (735)
870281-34-8

>  <URL> (735)
http://www.selleckchem.com/products/acalisib-gs-9820.html

$$$$

csChFnd80/05071909292D

 12 12  0  0  0  0  0  0  0  0999 V2000
    2.4110    1.4000    0.0000 C   0  0  0  0  0  0  0  0  0  0  0  0
    1.2124    2.0950    0.0000 C   0  0  0  0  0  0  0  0  0  0  0  0
    3.6228    2.1027    0.0000 C   0  0  0  0  0  0  0  0  0  0  0  0
    2.4110    0.0000    0.0000 Br  0  0  0  0  0  0  0  0  0  0  0  0
    1.2127    3.4781    0.0000 C   0  0  0  0  0  0  0  0  0  0  0  0
    0.0000    1.3950    0.0000 Br  0  0  0  0  0  0  0  0  0  0  0  0
    3.6206    3.4949    0.0000 C   0  0  0  0  0  0  0  0  0  0  0  0
    4.8352    1.4027    0.0000 Br  0  0  0  0  0  0  0  0  0  0  0  0
    2.4201    4.1854    0.0000 C   0  0  0  0  0  0  0  0  0  0  0  0
    0.0003    4.1781    0.0000 Br  0  0  0  0  0  0  0  0  0  0  0  0
    4.8330    4.1949    0.0000 Br  0  0  0  0  0  0  0  0  0  0  0  0
    2.4201    5.5854    0.0000 Br  0  0  0  0  0  0  0  0  0  0  0  0
  1  2  1  0  0  0  0
  1  3  1  0  0  0  0
  1  4  1  0  0  0  0
  2  5  1  0  0  0  0
  2  6  1  0  0  0  0
  3  7  1  0  0  0  0
  3  8  1  0  0  0  0
  5  9  1  0  0  0  0
  5 10  1  0  0  0  0
  7 11  1  0  0  0  0
  7  9  1  0  0  0  0
  9 12  1  0  0  0  0
M  END
>  <Mol_ID> (736)
4881

>  <Formula> (736)
C6H6Br6

>  <MolWeight> (736)
557.53584

>  <Cat> (736)
S5902

>  <Name> (736)
1,2,3,4,5,6-Hexabromocyclohexane

>  <Synonyms> (736)
NSC7908

>  <Target> (736)
JAK

>  <Form> (736)
Free Base

>  <CAS> (736)
1837-91-8

>  <URL> (736)
http://www.selleckchem.com/products/hexabromocyclohexane.html

$$$$

csChFnd80/05071909292D

 22 24  0  0  0  0  0  0  0  0999 V2000
    2.4249    2.1000    0.0000 C   0  0  0  0  0  0  0  0  0  0  0  0
    2.4249    0.7000    0.0000 C   0  0  0  0  0  0  0  0  0  0  0  0
    3.6373    0.0000    0.0000 C   0  0  0  0  0  0  0  0  0  0  0  0
    4.8497    0.7000    0.0000 C   0  0  0  0  0  0  0  0  0  0  0  0
    4.8497    2.1000    0.0000 C   0  0  0  0  0  0  0  0  0  0  0  0
    3.6373    2.8000    0.0000 C   0  0  0  0  0  0  0  0  0  0  0  0
    6.0622    0.0000    0.0000 N   0  0  0  0  0  0  0  0  0  0  0  0
    7.2746    0.7000    0.0000 C   0  0  0  0  0  0  0  0  0  0  0  0
    7.2746    2.1000    0.0000 N   0  0  0  0  0  0  0  0  0  0  0  0
    6.0622    2.8000    0.0000 C   0  0  0  0  0  0  0  0  0  0  0  0
    1.2124    2.8000    0.0000 O   0  0  0  0  0  0  0  0  0  0  0  0
    1.2124    0.0000    0.0000 O   0  0  0  0  0  0  0  0  0  0  0  0
    0.0000    0.7000    0.0000 C   0  0  0  0  0  0  0  0  0  0  0  0
    0.0000    2.1000    0.0000 C   0  0  0  0  0  0  0  0  0  0  0  0
    6.0622    4.2000    0.0000 N   0  0  0  0  0  0  0  0  0  0  0  0
    7.2746    4.9000    0.0000 C   0  0  0  0  0  0  0  0  0  0  0  0
    8.4870    4.2000    0.0000 C   0  0  0  0  0  0  0  0  0  0  0  0
    9.6995    4.9000    0.0000 C   0  0  0  0  0  0  0  0  0  0  0  0
    9.6995    6.3000    0.0000 C   0  0  0  0  0  0  0  0  0  0  0  0
    8.4870    7.0000    0.0000 C   0  0  0  0  0  0  0  0  0  0  0  0
    7.2746    6.3000    0.0000 C   0  0  0  0  0  0  0  0  0  0  0  0
   10.9119    7.0000    0.0000 O   0  0  0  0  0  0  0  0  0  0  0  0
  1  2  2  0  0  0  0
  2  3  1  0  0  0  0
  3  4  2  0  0  0  0
  4  5  1  0  0  0  0
  5  6  2  0  0  0  0
  6  1  1  0  0  0  0
  4  7  1  0  0  0  0
  7  8  2  0  0  0  0
  8  9  1  0  0  0  0
  9 10  2  0  0  0  0
 10  5  1  0  0  0  0
  1 11  1  0  0  0  0
  2 12  1  0  0  0  0
 12 13  1  0  0  0  0
 11 14  1  0  0  0  0
 10 15  1  0  0  0  0
 15 16  1  0  0  0  0
 16 17  2  0  0  0  0
 17 18  1  0  0  0  0
 18 19  2  0  0  0  0
 19 20  1  0  0  0  0
 20 21  2  0  0  0  0
 21 16  1  0  0  0  0
 19 22  1  0  0  0  0
M  END
>  <Mol_ID> (737)
4882

>  <Formula> (737)
C16H15N3O3

>  <MolWeight> (737)
297.3086

>  <Cat> (737)
S5903

>  <Name> (737)
JANEX-1

>  <Synonyms> (737)
WHI-P131

>  <Target> (737)
JAK

>  <Form> (737)
Free Base

>  <CAS> (737)
202475-60-3

>  <URL> (737)
http://www.selleckchem.com/products/janex-1.html

$$$$

csChFnd80/05071909292D

 24 26  0  0  0  0  0  0  0  0999 V2000
    9.7234    6.2984    0.0000 C   0  0  0  0  0  0  0  0  0  0  0  0
    8.5104    6.9988    0.0000 C   0  0  0  0  0  0  0  0  0  0  0  0
    7.2915    6.2951    0.0000 C   0  0  0  0  0  0  0  0  0  0  0  0
    7.2915    4.9117    0.0000 C   0  0  0  0  0  0  0  0  0  0  0  0
    8.5243    4.2000    0.0000 C   0  0  0  0  0  0  0  0  0  0  0  0
    9.7299    4.8960    0.0000 C   0  0  0  0  0  0  0  0  0  0  0  0
    6.0813    4.2130    0.0000 N   0  0  0  0  0  0  0  0  0  0  0  0
    6.0606    0.0000    0.0000 N   0  0  0  0  0  0  0  0  0  0  0  0
    7.2848    0.7068    0.0000 C   0  0  0  0  0  0  0  0  0  0  0  0
    7.2848    2.1182    0.0000 N   0  0  0  0  0  0  0  0  0  0  0  0
    6.0813    2.8130    0.0000 C   0  0  0  0  0  0  0  0  0  0  0  0
    4.8610    2.1084    0.0000 C   0  0  0  0  0  0  0  0  0  0  0  0
    3.6390    2.8140    0.0000 C   0  0  0  0  0  0  0  0  0  0  0  0
    2.4641    2.1356    0.0000 C   0  0  0  0  0  0  0  0  0  0  0  0
    2.4641    0.7669    0.0000 C   0  0  0  0  0  0  0  0  0  0  0  0
    3.6557    0.0789    0.0000 C   0  0  0  0  0  0  0  0  0  0  0  0
    4.8264    0.7548    0.0000 C   0  0  0  0  0  0  0  0  0  0  0  0
    1.2075    0.0414    0.0000 O   0  0  0  0  0  0  0  0  0  0  0  0
    1.2262    2.8503    0.0000 O   0  0  0  0  0  0  0  0  0  0  0  0
    0.0456    2.1687    0.0000 C   0  0  0  0  0  0  0  0  0  0  0  0
   10.9368    4.1992    0.0000 Br  0  0  0  0  0  0  0  0  0  0  0  0
    8.5104    8.3968    0.0000 Br  0  0  0  0  0  0  0  0  0  0  0  0
   10.9361    6.9985    0.0000 O   0  0  0  0  0  0  0  0  0  0  0  0
    0.0000    0.7385    0.0000 C   0  0  0  0  0  0  0  0  0  0  0  0
  1  2  1  0  0  0  0
  2  3  2  0  0  0  0
  3  4  1  0  0  0  0
  4  5  2  0  0  0  0
  5  6  1  0  0  0  0
  1  6  2  0  0  0  0
  8  9  1  0  0  0  0
  9 10  2  0  0  0  0
 10 11  1  0  0  0  0
 11 12  2  0  0  0  0
 12 13  1  0  0  0  0
 13 14  2  0  0  0  0
 14 15  1  0  0  0  0
 15 16  2  0  0  0  0
 16 17  1  0  0  0  0
  8 17  2  0  0  0  0
 12 17  1  0  0  0  0
 15 18  1  0  0  0  0
 19 20  1  0  0  0  0
 14 19  1  0  0  0  0
  7 11  1  0  0  0  0
  4  7  1  0  0  0  0
  6 21  1  0  0  0  0
  2 22  1  0  0  0  0
  1 23  1  0  0  0  0
 18 24  1  0  0  0  0
M  END
>  <Mol_ID> (738)
4883

>  <Formula> (738)
C16H13Br2N3O3

>  <MolWeight> (738)
455.10072

>  <Cat> (738)
S5904

>  <Name> (738)
WHI-P97

>  <Synonyms> (738)
N/A

>  <Target> (738)
JAK

>  <Form> (738)
Free Base

>  <CAS> (738)
211555-05-4

>  <URL> (738)
http://www.selleckchem.com/products/whi-p97.html

$$$$

csChFnd80/05071909292D

 29 33  0  0  0  0  0  0  0  0999 V2000
    1.2125    1.4000    0.0000 C   0  0  0  0  0  0  0  0  0  0  0  0
    1.2125    0.0000    0.0000 C   0  0  0  0  0  0  0  0  0  0  0  0
    0.0000    0.7000    0.0000 C   0  0  0  0  0  0  0  0  0  0  0  0
    1.9125    2.6125    0.0000 C   0  0  0  0  0  0  0  0  0  0  0  0
    1.2125    3.8249    0.0000 O   0  0  0  0  0  0  0  0  0  0  0  0
    3.3125    2.6125    0.0000 N   0  0  0  0  0  0  0  0  0  0  0  0
    4.4834    6.0407    0.0000 C   0  0  0  0  0  0  0  0  0  0  0  0
    4.4834    7.4407    0.0000 C   0  0  0  0  0  0  0  0  0  0  0  0
    5.6958    8.1407    0.0000 C   0  0  0  0  0  0  0  0  0  0  0  0
    6.9082    7.4407    0.0000 C   0  0  0  0  0  0  0  0  0  0  0  0
    6.9082    6.0407    0.0000 C   0  0  0  0  0  0  0  0  0  0  0  0
    5.6958    5.3407    0.0000 N   0  0  0  0  0  0  0  0  0  0  0  0
    5.4046    3.9712    0.0000 N   0  0  0  0  0  0  0  0  0  0  0  0
    4.0125    3.8249    0.0000 C   0  0  0  0  0  0  0  0  0  0  0  0
    3.4430    5.1038    0.0000 N   0  0  0  0  0  0  0  0  0  0  0  0
    8.1206    5.3407    0.0000 C   0  0  0  0  0  0  0  0  0  0  0  0
    9.3331    6.0407    0.0000 C   0  0  0  0  0  0  0  0  0  0  0  0
   10.5456    5.3407    0.0000 C   0  0  0  0  0  0  0  0  0  0  0  0
   10.5456    3.9407    0.0000 C   0  0  0  0  0  0  0  0  0  0  0  0
    9.3331    3.2407    0.0000 C   0  0  0  0  0  0  0  0  0  0  0  0
    8.1206    3.9407    0.0000 C   0  0  0  0  0  0  0  0  0  0  0  0
   11.7579    3.2407    0.0000 C   0  0  0  0  0  0  0  0  0  0  0  0
   11.7579    1.8407    0.0000 O   0  0  0  0  0  0  0  0  0  0  0  0
   12.9704    3.9407    0.0000 N   0  0  0  0  0  0  0  0  0  0  0  0
   13.3327    5.2930    0.0000 C   0  0  0  0  0  0  0  0  0  0  0  0
   14.6850    4.9305    0.0000 C   0  0  0  0  0  0  0  0  0  0  0  0
   14.3227    3.5784    0.0000 C   0  0  0  0  0  0  0  0  0  0  0  0
   15.0473    6.2828    0.0000 C   0  0  0  0  0  0  0  0  0  0  0  0
   16.0373    4.5682    0.0000 C   0  0  0  0  0  0  0  0  0  0  0  0
  1  2  1  0  0  0  0
  2  3  1  0  0  0  0
  1  3  1  0  0  0  0
  4  5  2  0  0  0  0
  4  6  1  0  0  0  0
  1  4  1  0  0  0  0
  7  8  1  0  0  0  0
  8  9  2  0  0  0  0
  9 10  1  0  0  0  0
 10 11  2  0  0  0  0
 11 12  1  0  0  0  0
  7 12  1  0  0  0  0
 13 14  2  0  0  0  0
 14 15  1  0  0  0  0
 12 13  1  0  0  0  0
  7 15  2  0  0  0  0
 16 17  1  0  0  0  0
 17 18  2  0  0  0  0
 18 19  1  0  0  0  0
 19 20  2  0  0  0  0
 20 21  1  0  0  0  0
 16 21  2  0  0  0  0
 22 23  2  0  0  0  0
 24 25  1  0  0  0  0
 25 26  1  0  0  0  0
 26 27  1  0  0  0  0
 24 27  1  0  0  0  0
 22 24  1  0  0  0  0
 26 28  1  0  0  0  0
 26 29  1  0  0  0  0
 19 22  1  0  0  0  0
 11 16  1  0  0  0  0
  6 14  1  0  0  0  0
M  END
>  <Mol_ID> (739)
4894

>  <Formula> (739)
C22H23N5O2

>  <MolWeight> (739)
389.45032

>  <Cat> (739)
S5917

>  <Name> (739)
Solcitinib

>  <Synonyms> (739)
GLPG0778, GSK2586184

>  <Target> (739)
JAK

>  <Form> (739)
Free Base

>  <CAS> (739)
1206163-45-2

>  <URL> (739)
http://www.selleckchem.com/products/solcitinib.html

$$$$

csChFnd80/05071909292D

 38 43  0  0  0  0  0  0  0  0999 V2000
    2.6082    5.8040    0.0000 C   0  0  0  0  0  0  0  0  0  0  0  0
    2.6082    4.4040    0.0000 N   0  0  0  0  0  0  0  0  0  0  0  0
    3.8207    3.7040    0.0000 C   0  0  0  0  0  0  0  0  0  0  0  0
    5.0331    4.4040    0.0000 C   0  0  0  0  0  0  0  0  0  0  0  0
    5.0331    5.8040    0.0000 C   0  0  0  0  0  0  0  0  0  0  0  0
    3.8207    6.5040    0.0000 N   0  0  0  0  0  0  0  0  0  0  0  0
    1.4000    6.5016    0.0000 C   0  0  0  0  0  0  0  0  0  0  0  0
    6.2413    3.7065    0.0000 C   0  0  0  0  0  0  0  0  0  0  0  0
    6.2413    2.3065    0.0000 C   0  0  0  0  0  0  0  0  0  0  0  0
    7.4538    1.6064    0.0000 N   0  0  0  0  0  0  0  0  0  0  0  0
    8.6662    2.3065    0.0000 C   0  0  0  0  0  0  0  0  0  0  0  0
    8.6662    3.7065    0.0000 C   0  0  0  0  0  0  0  0  0  0  0  0
    7.4538    4.4065    0.0000 C   0  0  0  0  0  0  0  0  0  0  0  0
    9.9977    1.8738    0.0000 N   0  0  0  0  0  0  0  0  0  0  0  0
   10.8206    3.0064    0.0000 C   0  0  0  0  0  0  0  0  0  0  0  0
    9.9977    4.1391    0.0000 C   0  0  0  0  0  0  0  0  0  0  0  0
   10.4288    5.4659    0.0000 C   0  0  0  0  0  0  0  0  0  0  0  0
    9.4423    6.4524    0.0000 O   0  0  0  0  0  0  0  0  0  0  0  0
   11.7935    5.7560    0.0000 C   0  0  0  0  0  0  0  0  0  0  0  0
   12.7302    4.7156    0.0000 C   0  0  0  0  0  0  0  0  0  0  0  0
   14.0996    5.0067    0.0000 C   0  0  0  0  0  0  0  0  0  0  0  0
   14.5323    6.3381    0.0000 C   0  0  0  0  0  0  0  0  0  0  0  0
   13.5955    7.3786    0.0000 C   0  0  0  0  0  0  0  0  0  0  0  0
   12.2261    7.0875    0.0000 C   0  0  0  0  0  0  0  0  0  0  0  0
   11.2925    8.1243    0.0000 F   0  0  0  0  0  0  0  0  0  0  0  0
   12.2991    3.3887    0.0000 F   0  0  0  0  0  0  0  0  0  0  0  0
   15.0332    3.9699    0.0000 N   0  0  0  0  0  0  0  0  0  0  0  0
    0.7000    7.7140    0.0000 C   0  0  0  0  0  0  0  0  0  0  0  0
    0.0000    6.5016    0.0000 C   0  0  0  0  0  0  0  0  0  0  0  0
   16.3978    4.2599    0.0000 S   0  0  0  0  0  0  0  0  0  0  0  0
   16.6879    2.8953    0.0000 N   0  0  0  0  0  0  0  0  0  0  0  0
   16.1078    5.6246    0.0000 O   0  0  0  0  0  0  0  0  0  0  0  0
   17.7625    4.5500    0.0000 O   0  0  0  0  0  0  0  0  0  0  0  0
   15.7511    1.8549    0.0000 C   0  0  0  0  0  0  0  0  0  0  0  0
   16.4511    0.6425    0.0000 C   0  0  0  0  0  0  0  0  0  0  0  0
   17.8205    0.9335    0.0000 C   0  0  2  0  0  0  0  0  0  0  0  0
   17.9669    2.3259    0.0000 C   0  0  0  0  0  0  0  0  0  0  0  0
   18.8573    0.0000    0.0000 F   0  0  0  0  0  0  0  0  0  0  0  0
  1  2  2  0  0  0  0
  2  3  1  0  0  0  0
  3  4  2  0  0  0  0
  4  5  1  0  0  0  0
  5  6  2  0  0  0  0
  6  1  1  0  0  0  0
  1  7  1  0  0  0  0
  4  8  1  0  0  0  0
  8  9  2  0  0  0  0
  9 10  1  0  0  0  0
 10 11  2  0  0  0  0
 11 12  1  0  0  0  0
 12 13  2  0  0  0  0
 13  8  1  0  0  0  0
 11 14  1  0  0  0  0
 14 15  1  0  0  0  0
 15 16  2  0  0  0  0
 16 12  1  0  0  0  0
 16 17  1  0  0  0  0
 17 18  2  0  0  0  0
 17 19  1  0  0  0  0
 19 20  2  0  0  0  0
 20 21  1  0  0  0  0
 21 22  2  0  0  0  0
 22 23  1  0  0  0  0
 23 24  2  0  0  0  0
 24 19  1  0  0  0  0
 24 25  1  0  0  0  0
 20 26  1  0  0  0  0
 21 27  1  0  0  0  0
  7 28  1  0  0  0  0
 28 29  1  0  0  0  0
 29  7  1  0  0  0  0
 27 30  1  0  0  0  0
 30 31  1  0  0  0  0
 30 32  2  0  0  0  0
 30 33  2  0  0  0  0
 31 34  1  0  0  0  0
 34 35  1  0  0  0  0
 35 36  1  0  0  0  0
 36 37  1  0  0  0  0
 37 31  1  0  0  0  0
 36 38  1  6  0  0  0
M  END
>  <Mol_ID> (740)
4914

>  <Formula> (740)
C25H21F3N6O3S

>  <MolWeight> (740)
542.5328496

>  <Cat> (740)
S7965

>  <Name> (740)
PLX8394

>  <Synonyms> (740)
N/A

>  <Target> (740)
Raf

>  <Form> (740)
Free Base

>  <CAS> (740)
1393466-87-9

>  <URL> (740)
http://www.selleckchem.com/products/plx8394.html

$$$$

csChFnd80/05071909292D

 23 26  0  0  0  0  0  0  0  0999 V2000
    5.4018    2.1000    0.0000 C   0  0  0  0  0  0  0  0  0  0  0  0
    5.4018    0.7000    0.0000 C   0  0  0  0  0  0  0  0  0  0  0  0
    6.6142    0.0000    0.0000 N   0  0  0  0  0  0  0  0  0  0  0  0
    7.8266    0.7000    0.0000 C   0  0  0  0  0  0  0  0  0  0  0  0
    7.8266    2.1000    0.0000 C   0  0  0  0  0  0  0  0  0  0  0  0
    6.6142    2.8000    0.0000 C   0  0  0  0  0  0  0  0  0  0  0  0
    4.0703    2.5326    0.0000 C   0  0  0  0  0  0  0  0  0  0  0  0
    3.2474    1.4000    0.0000 C   0  0  0  0  0  0  0  0  0  0  0  0
    4.0703    0.2674    0.0000 N   0  0  0  0  0  0  0  0  0  0  0  0
    3.6377    3.8641    0.0000 N   0  0  0  0  0  0  0  0  0  0  0  0
    2.2683    4.1552    0.0000 C   0  0  0  0  0  0  0  0  0  0  0  0
    1.3315    3.1148    0.0000 C   0  0  0  0  0  0  0  0  0  0  0  0
    1.8356    5.4867    0.0000 O   0  0  0  0  0  0  0  0  0  0  0  0
    9.0391    2.8000    0.0000 Br  0  0  0  0  0  0  0  0  0  0  0  0
    6.6142    4.2000    0.0000 N   0  0  0  0  0  0  0  0  0  0  0  0
    7.8266    4.9000    0.0000 C   0  0  0  0  0  0  0  0  0  0  0  0
    7.8266    6.3000    0.0000 C   0  0  1  0  0  0  0  0  0  0  0  0
    6.6142    7.0000    0.0000 C   0  0  0  0  0  0  0  0  0  0  0  0
    5.4018    6.3000    0.0000 C   0  0  0  0  0  0  0  0  0  0  0  0
    5.4018    4.9000    0.0000 C   0  0  0  0  0  0  0  0  0  0  0  0
    9.0391    7.0000    0.0000 N   0  0  0  0  0  0  0  0  0  0  0  0
    0.0000    2.6822    0.0000 C   0  0  0  0  0  0  0  0  0  0  0  0
    1.0404    1.7454    0.0000 C   0  0  0  0  0  0  0  0  0  0  0  0
  1  2  2  0  0  0  0
  2  3  1  0  0  0  0
  3  4  2  0  0  0  0
  4  5  1  0  0  0  0
  5  6  2  0  0  0  0
  6  1  1  0  0  0  0
  1  7  1  0  0  0  0
  7  8  2  0  0  0  0
  8  9  1  0  0  0  0
  9  2  1  0  0  0  0
  7 10  1  0  0  0  0
 10 11  1  0  0  0  0
 11 12  1  0  0  0  0
 11 13  2  0  0  0  0
  5 14  1  0  0  0  0
  6 15  1  0  0  0  0
 15 16  1  0  0  0  0
 16 17  1  0  0  0  0
 17 18  1  0  0  0  0
 18 19  1  0  0  0  0
 19 20  1  0  0  0  0
 20 15  1  0  0  0  0
 17 21  1  1  0  0  0
 12 22  1  0  0  0  0
 22 23  1  0  0  0  0
 23 12  1  0  0  0  0
M  END
>  <Mol_ID> (741)
4917

>  <Formula> (741)
C16H20BrN5O

>  <MolWeight> (741)
378.2669

>  <Cat> (741)
S8526

>  <Name> (741)
GDC-0575 (ARRY-575, RG7741)

>  <Synonyms> (741)
N/A

>  <Target> (741)
Chk

>  <Form> (741)
Free Base

>  <CAS> (741)
1196541-47-5

>  <URL> (741)
http://www.selleckchem.com/products/gdc-0575.html

$$$$

csChFnd80/05071909292D

 31 34  0  0  0  0  0  0  0  0999 V2000
    7.2746    2.1000    0.0000 C   0  0  0  0  0  0  0  0  0  0  0  0
    7.2746    0.7000    0.0000 C   0  0  0  0  0  0  0  0  0  0  0  0
    8.4870    0.0000    0.0000 C   0  0  0  0  0  0  0  0  0  0  0  0
    9.6995    0.7000    0.0000 C   0  0  0  0  0  0  0  0  0  0  0  0
    9.6995    2.1000    0.0000 C   0  0  0  0  0  0  0  0  0  0  0  0
    8.4870    2.8000    0.0000 C   0  0  0  0  0  0  0  0  0  0  0  0
   10.9119    0.0000    0.0000 N   0  0  0  0  0  0  0  0  0  0  0  0
   12.1244    0.7000    0.0000 C   0  0  0  0  0  0  0  0  0  0  0  0
   12.1244    2.1000    0.0000 C   0  0  0  0  0  0  0  0  0  0  0  0
   10.9119    2.8000    0.0000 C   0  0  0  0  0  0  0  0  0  0  0  0
    6.0622    2.8000    0.0000 C   0  0  0  0  0  0  0  0  0  0  0  0
   10.9119    4.2000    0.0000 N   0  0  0  0  0  0  0  0  0  0  0  0
   13.3368    2.8000    0.0000 C   0  0  0  0  0  0  0  0  0  0  0  0
   14.5492    2.1000    0.0000 N   0  0  0  0  0  0  0  0  0  0  0  0
   13.3368    4.2000    0.0000 O   0  0  0  0  0  0  0  0  0  0  0  0
    9.6995    4.9000    0.0000 C   0  0  2  0  0  0  0  0  0  0  0  0
    9.6995    6.3000    0.0000 C   0  0  0  0  0  0  0  0  0  0  0  0
    8.4870    4.2000    0.0000 C   0  0  0  0  0  0  0  0  0  0  0  0
   10.9119    7.0000    0.0000 C   0  0  0  0  0  0  0  0  0  0  0  0
   10.9119    8.4000    0.0000 C   0  0  0  0  0  0  0  0  0  0  0  0
    9.6995    9.1000    0.0000 O   0  0  0  0  0  0  0  0  0  0  0  0
    8.4870    8.4000    0.0000 C   0  0  0  0  0  0  0  0  0  0  0  0
    8.4870    7.0000    0.0000 C   0  0  0  0  0  0  0  0  0  0  0  0
    6.0622    4.2000    0.0000 C   0  0  0  0  0  0  0  0  0  0  0  0
    4.8497    4.9000    0.0000 N   0  0  0  0  0  0  0  0  0  0  0  0
    3.6373    4.2000    0.0000 C   0  0  0  0  0  0  0  0  0  0  0  0
    3.6373    2.8000    0.0000 C   0  0  0  0  0  0  0  0  0  0  0  0
    4.8497    2.1000    0.0000 C   0  0  0  0  0  0  0  0  0  0  0  0
    2.4249    4.9000    0.0000 C   0  0  0  0  0  0  0  0  0  0  0  0
    1.2124    4.2000    0.0000 O   0  0  0  0  0  0  0  0  0  0  0  0
    0.0000    4.9000    0.0000 C   0  0  0  0  0  0  0  0  0  0  0  0
  1  2  2  0  0  0  0
  2  3  1  0  0  0  0
  3  4  2  0  0  0  0
  4  5  1  0  0  0  0
  5  6  2  0  0  0  0
  6  1  1  0  0  0  0
  4  7  1  0  0  0  0
  7  8  2  0  0  0  0
  8  9  1  0  0  0  0
  9 10  2  0  0  0  0
 10  5  1  0  0  0  0
  1 11  1  0  0  0  0
 10 12  1  0  0  0  0
  9 13  1  0  0  0  0
 13 14  1  0  0  0  0
 13 15  2  0  0  0  0
 12 16  1  0  0  0  0
 16 17  1  0  0  0  0
 16 18  1  1  0  0  0
 17 19  1  0  0  0  0
 19 20  1  0  0  0  0
 20 21  1  0  0  0  0
 21 22  1  0  0  0  0
 22 23  1  0  0  0  0
 23 17  1  0  0  0  0
 11 24  2  0  0  0  0
 24 25  1  0  0  0  0
 25 26  2  0  0  0  0
 26 27  1  0  0  0  0
 27 28  2  0  0  0  0
 28 11  1  0  0  0  0
 26 29  1  0  0  0  0
 29 30  1  0  0  0  0
 30 31  1  0  0  0  0
M  END
>  <Mol_ID> (742)
4918

>  <Formula> (742)
C24H28N4O3

>  <MolWeight> (742)
420.50412

>  <Cat> (742)
S8556

>  <Name> (742)
AZ31

>  <Synonyms> (742)
N/A

>  <Target> (742)
ATM/ATR

>  <Form> (742)
Free Base

>  <CAS> (742)
2088113-98-6

>  <URL> (742)
http://www.selleckchem.com/products/az31.html

$$$$

csChFnd80/05071909292D

 34 38  0  0  0  0  0  0  0  0999 V2000
    0.0000    5.6000    0.0000 C   0  0  0  0  0  0  0  0  0  0  0  0
    0.0000    4.2000    0.0000 C   0  0  0  0  0  0  0  0  0  0  0  0
    1.2124    3.5000    0.0000 C   0  0  0  0  0  0  0  0  0  0  0  0
    2.4249    4.2000    0.0000 C   0  0  0  0  0  0  0  0  0  0  0  0
    2.4249    5.6000    0.0000 C   0  0  0  0  0  0  0  0  0  0  0  0
    1.2124    6.3000    0.0000 C   0  0  0  0  0  0  0  0  0  0  0  0
    3.6373    3.5000    0.0000 N   0  0  0  0  0  0  0  0  0  0  0  0
    4.8497    4.2000    0.0000 C   0  0  0  0  0  0  0  0  0  0  0  0
    4.8497    5.6000    0.0000 C   0  0  0  0  0  0  0  0  0  0  0  0
    3.6373    6.3000    0.0000 C   0  0  0  0  0  0  0  0  0  0  0  0
    1.2124    2.1000    0.0000 Cl  0  0  0  0  0  0  0  0  0  0  0  0
    6.0622    3.5000    0.0000 C   0  0  0  0  0  0  0  0  0  0  0  0
    6.0622    6.3000    0.0000 C   0  0  2  0  0  0  0  0  0  0  0  0
    6.0622    7.7000    0.0000 C   0  0  0  0  0  0  0  0  0  0  0  0
    6.0622    9.1000    0.0000 F   0  0  0  0  0  0  0  0  0  0  0  0
    4.6622    7.7000    0.0000 F   0  0  0  0  0  0  0  0  0  0  0  0
    7.4622    7.7000    0.0000 F   0  0  0  0  0  0  0  0  0  0  0  0
    7.2746    5.6000    0.0000 N   0  0  0  0  0  0  0  0  0  0  0  0
    8.4870    6.3000    0.0000 C   0  0  0  0  0  0  0  0  0  0  0  0
    9.6995    5.6000    0.0000 C   0  0  0  0  0  0  0  0  0  0  0  0
   10.9119    6.3000    0.0000 C   0  0  0  0  0  0  0  0  0  0  0  0
   10.9119    7.7000    0.0000 N   0  0  0  0  0  0  0  0  0  0  0  0
    9.6995    8.4000    0.0000 C   0  0  0  0  0  0  0  0  0  0  0  0
    8.4870    7.7000    0.0000 N   0  0  0  0  0  0  0  0  0  0  0  0
    9.6995    4.2000    0.0000 N   0  0  0  0  0  0  0  0  0  0  0  0
   10.9119    3.5000    0.0000 C   0  0  0  0  0  0  0  0  0  0  0  0
   12.1244    4.2000    0.0000 C   0  0  0  0  0  0  0  0  0  0  0  0
   12.1244    5.6000    0.0000 C   0  0  0  0  0  0  0  0  0  0  0  0
    6.0622    2.1000    0.0000 C   0  0  0  0  0  0  0  0  0  0  0  0
    7.2746    1.4000    0.0000 N   0  3  0  0  0  0  0  0  0  0  0  0
    8.4870    2.1000    0.0000 C   0  0  0  0  0  0  0  0  0  0  0  0
    8.4870    3.5000    0.0000 C   0  0  0  0  0  0  0  0  0  0  0  0
    7.2746    4.2000    0.0000 C   0  0  0  0  0  0  0  0  0  0  0  0
    7.2746    0.0000    0.0000 O   0  5  0  0  0  0  0  0  0  0  0  0
  1  2  2  0  0  0  0
  2  3  1  0  0  0  0
  3  4  2  0  0  0  0
  4  5  1  0  0  0  0
  5  6  2  0  0  0  0
  6  1  1  0  0  0  0
  4  7  1  0  0  0  0
  7  8  2  0  0  0  0
  8  9  1  0  0  0  0
  9 10  2  0  0  0  0
 10  5  1  0  0  0  0
  3 11  1  0  0  0  0
  8 12  1  0  0  0  0
  9 13  1  0  0  0  0
 13 14  1  0  0  0  0
 13 18  1  6  0  0  0
 18 19  1  0  0  0  0
 19 20  2  0  0  0  0
 20 21  1  0  0  0  0
 21 22  2  0  0  0  0
 22 23  1  0  0  0  0
 23 24  2  0  0  0  0
 24 19  1  0  0  0  0
 20 25  1  0  0  0  0
 25 26  2  0  0  0  0
 26 27  1  0  0  0  0
 27 28  2  0  0  0  0
 28 21  1  0  0  0  0
 12 29  2  0  0  0  0
 29 30  1  0  0  0  0
 30 31  2  0  0  0  0
 31 32  1  0  0  0  0
 32 33  2  0  0  0  0
 33 12  1  0  0  0  0
 30 34  1  0  0  0  0
 14 15  1  0  0  0  0
 14 16  1  0  0  0  0
 14 17  1  0  0  0  0
M  END
>  <Mol_ID> (743)
4919

>  <Formula> (743)
C23H14ClF3N6O

>  <MolWeight> (743)
482.8450696

>  <Cat> (743)
S8560

>  <Name> (743)
Seletalisib (UCB-5857)

>  <Synonyms> (743)
N/A

>  <Target> (743)
PI3K

>  <Form> (743)
Free Base

>  <CAS> (743)
1362850-20-1

>  <URL> (743)
http://www.selleckchem.com/products/seletalisib-ucb-5857.html

$$$$

csChFnd80/05071909292D

 35 39  0  0  0  0  0  0  0  0999 V2000
    6.0622    4.2000    0.0000 C   0  0  0  0  0  0  0  0  0  0  0  0
    6.0622    2.8000    0.0000 C   0  0  0  0  0  0  0  0  0  0  0  0
    7.2746    2.1000    0.0000 C   0  0  0  0  0  0  0  0  0  0  0  0
    8.4870    2.8000    0.0000 C   0  0  0  0  0  0  0  0  0  0  0  0
    8.4870    4.2000    0.0000 C   0  0  0  0  0  0  0  0  0  0  0  0
    7.2746    4.9000    0.0000 C   0  0  0  0  0  0  0  0  0  0  0  0
    7.2746    6.3000    0.0000 C   0  0  0  0  0  0  0  0  0  0  0  0
    6.0622    7.0000    0.0000 C   0  0  0  0  0  0  0  0  0  0  0  0
    4.8497    6.3000    0.0000 N   0  0  0  0  0  0  0  0  0  0  0  0
    9.6995    2.1000    0.0000 N   0  0  0  0  0  0  0  0  0  0  0  0
   10.9119    2.8000    0.0000 C   0  0  0  0  0  0  0  0  0  0  0  0
   12.1244    2.1000    0.0000 N   0  0  0  0  0  0  0  0  0  0  0  0
   13.3368    2.8000    0.0000 C   0  0  0  0  0  0  0  0  0  0  0  0
   13.3368    4.2000    0.0000 C   0  0  0  0  0  0  0  0  0  0  0  0
   12.1244    4.9000    0.0000 C   0  0  0  0  0  0  0  0  0  0  0  0
   10.9119    4.2000    0.0000 N   0  0  0  0  0  0  0  0  0  0  0  0
   14.5492    2.1000    0.0000 C   0  0  0  0  0  0  0  0  0  0  0  0
   15.7617    2.8000    0.0000 C   0  0  0  0  0  0  0  0  0  0  0  0
   15.7617    4.2000    0.0000 C   0  0  1  0  0  0  0  0  0  0  0  0
   14.5492    4.9000    0.0000 C   0  0  0  0  0  0  0  0  0  0  0  0
   14.5492    0.7000    0.0000 C   0  0  0  0  0  0  0  0  0  0  0  0
   15.7617    0.0000    0.0000 C   0  0  0  0  0  0  0  0  0  0  0  0
   16.9741    0.7000    0.0000 C   0  0  0  0  0  0  0  0  0  0  0  0
   16.9741    2.1000    0.0000 C   0  0  0  0  0  0  0  0  0  0  0  0
   16.9741    4.9000    0.0000 C   0  0  0  0  0  0  0  0  0  0  0  0
   18.1865    4.2000    0.0000 C   0  0  0  0  0  0  0  0  0  0  0  0
   19.3990    4.9000    0.0000 C   0  0  0  0  0  0  0  0  0  0  0  0
   19.3990    6.3000    0.0000 C   0  0  0  0  0  0  0  0  0  0  0  0
   18.1865    7.0000    0.0000 C   0  0  0  0  0  0  0  0  0  0  0  0
   16.9741    6.3000    0.0000 C   0  0  0  0  0  0  0  0  0  0  0  0
   15.7617    7.0000    0.0000 F   0  0  0  0  0  0  0  0  0  0  0  0
    3.6373    7.0000    0.0000 C   0  0  0  0  0  0  0  0  0  0  0  0
    2.4249    6.3000    0.0000 C   0  0  0  0  0  0  0  0  0  0  0  0
    1.2124    7.0000    0.0000 O   0  0  0  0  0  0  0  0  0  0  0  0
    0.0000    6.3000    0.0000 C   0  0  0  0  0  0  0  0  0  0  0  0
  1  2  2  0  0  0  0
  2  3  1  0  0  0  0
  3  4  2  0  0  0  0
  4  5  1  0  0  0  0
  5  6  2  0  0  0  0
  6  1  1  0  0  0  0
  6  7  1  0  0  0  0
  7  8  1  0  0  0  0
  8  9  1  0  0  0  0
  4 10  1  0  0  0  0
 10 11  1  0  0  0  0
 11 12  2  0  0  0  0
 12 13  1  0  0  0  0
 13 14  2  0  0  0  0
 14 15  1  0  0  0  0
 15 16  2  0  0  0  0
 16 11  1  0  0  0  0
 13 17  1  0  0  0  0
 17 18  2  0  0  0  0
 18 19  1  0  0  0  0
 19 20  1  0  0  0  0
 20 14  1  0  0  0  0
 17 21  1  0  0  0  0
 21 22  2  0  0  0  0
 22 23  1  0  0  0  0
 23 24  2  0  0  0  0
 24 18  1  0  0  0  0
 19 25  1  1  0  0  0
 25 26  2  0  0  0  0
 26 27  1  0  0  0  0
 27 28  2  0  0  0  0
 28 29  1  0  0  0  0
 29 30  2  0  0  0  0
 30 25  1  0  0  0  0
 30 31  1  0  0  0  0
  9 32  1  0  0  0  0
 32 33  1  0  0  0  0
 33 34  1  0  0  0  0
 34 35  1  0  0  0  0
M  END
>  <Mol_ID> (744)
4921

>  <Formula> (744)
C29H29FN4O

>  <MolWeight> (744)
468.5651632

>  <Cat> (744)
S8609

>  <Name> (744)
Derazantinib(ARQ-087)

>  <Synonyms> (744)
N/A

>  <Target> (744)
FGFR

>  <Form> (744)
Free Base

>  <CAS> (744)
1234356-69-4

>  <URL> (744)
http://www.selleckchem.com/products/derazantinib.html

$$$$

csChFnd80/05071909292D

 19 21  0  0  0  0  0  0  0  0999 V2000
    0.0000    3.5000    0.0000 C   0  0  0  0  0  0  0  0  0  0  0  0
    0.0000    2.1000    0.0000 C   0  0  0  0  0  0  0  0  0  0  0  0
    1.2124    1.4000    0.0000 C   0  0  0  0  0  0  0  0  0  0  0  0
    2.4249    2.1000    0.0000 C   0  0  0  0  0  0  0  0  0  0  0  0
    2.4249    3.5000    0.0000 C   0  0  0  0  0  0  0  0  0  0  0  0
    1.2124    4.2000    0.0000 C   0  0  0  0  0  0  0  0  0  0  0  0
    3.7564    1.6674    0.0000 N   0  0  0  0  0  0  0  0  0  0  0  0
    4.5793    2.8000    0.0000 C   0  0  0  0  0  0  0  0  0  0  0  0
    3.7564    3.9326    0.0000 C   0  0  0  0  0  0  0  0  0  0  0  0
    4.1890    5.2641    0.0000 C   0  0  0  0  0  0  0  0  0  0  0  0
    5.5584    5.5552    0.0000 C   0  0  3  0  0  0  0  0  0  0  0  0
    6.5988    4.6184    0.0000 N   0  0  0  0  0  0  0  0  0  0  0  0
    7.8112    5.3184    0.0000 C   0  0  0  0  0  0  0  0  0  0  0  0
    7.5201    6.6878    0.0000 N   0  0  0  0  0  0  0  0  0  0  0  0
    6.1278    6.8341    0.0000 C   0  0  0  0  0  0  0  0  0  0  0  0
    5.4278    8.0466    0.0000 O   0  0  0  0  0  0  0  0  0  0  0  0
    9.0902    4.7490    0.0000 O   0  0  0  0  0  0  0  0  0  0  0  0
    8.4569    7.7282    0.0000 C   0  0  0  0  0  0  0  0  0  0  0  0
    1.2124    0.0000    0.0000 Cl  0  0  0  0  0  0  0  0  0  0  0  0
  1  2  2  0  0  0  0
  2  3  1  0  0  0  0
  3  4  2  0  0  0  0
  4  5  1  0  0  0  0
  5  6  2  0  0  0  0
  6  1  1  0  0  0  0
  4  7  1  0  0  0  0
  7  8  1  0  0  0  0
  8  9  2  0  0  0  0
  9  5  1  0  0  0  0
  9 10  1  0  0  0  0
 10 11  1  0  0  0  0
 11 12  1  0  0  0  0
 12 13  1  0  0  0  0
 13 14  1  0  0  0  0
 14 15  1  0  0  0  0
 15 11  1  0  0  0  0
 15 16  2  0  0  0  0
 13 17  2  0  0  0  0
 14 18  1  0  0  0  0
  3 19  1  0  0  0  0
M  END
>  <Mol_ID> (745)
4922

>  <Formula> (745)
C13H12ClN3O2

>  <MolWeight> (745)
277.70628

>  <Cat> (745)
S8641

>  <Name> (745)
Nec-1s (7-Cl-O-Nec1)

>  <Synonyms> (745)
Necrostatin-1 stable

>  <Target> (745)
TNF-alpha

>  <Form> (745)
Free Base

>  <CAS> (745)
852391-15-2

>  <URL> (745)
http://www.selleckchem.com/products/nec-1s-7-cl-o-nec1.html

$$$$

csChFnd80/05071909292D

 35 39  0  0  0  0  0  0  0  0999 V2000
    1.2124    2.1000    0.0000 N   0  0  0  0  0  0  0  0  0  0  0  0
    1.2124    0.7000    0.0000 C   0  0  0  0  0  0  0  0  0  0  0  0
    2.4249    0.0000    0.0000 N   0  0  0  0  0  0  0  0  0  0  0  0
    3.6373    0.7000    0.0000 C   0  0  0  0  0  0  0  0  0  0  0  0
    3.6373    2.1000    0.0000 C   0  0  0  0  0  0  0  0  0  0  0  0
    2.4249    2.8000    0.0000 C   0  0  0  0  0  0  0  0  0  0  0  0
    2.4249    4.2000    0.0000 C   0  0  0  0  0  0  0  0  0  0  0  0
    4.9688    0.2674    0.0000 N   0  0  0  0  0  0  0  0  0  0  0  0
    5.7917    1.4000    0.0000 C   0  0  0  0  0  0  0  0  0  0  0  0
    4.9688    2.5326    0.0000 C   0  0  0  0  0  0  0  0  0  0  0  0
    3.6373    4.9000    0.0000 C   0  0  0  0  0  0  0  0  0  0  0  0
    3.6373    6.3000    0.0000 C   0  0  0  0  0  0  0  0  0  0  0  0
    2.4249    7.0000    0.0000 C   0  0  0  0  0  0  0  0  0  0  0  0
    1.2124    6.3000    0.0000 C   0  0  0  0  0  0  0  0  0  0  0  0
    1.2124    4.9000    0.0000 C   0  0  0  0  0  0  0  0  0  0  0  0
    0.0000    7.0000    0.0000 F   0  0  0  0  0  0  0  0  0  0  0  0
    2.4249    8.4000    0.0000 C   0  0  0  0  0  0  0  0  0  0  0  0
    3.6373    9.1000    0.0000 N   0  0  0  0  0  0  0  0  0  0  0  0
    4.8497    8.4000    0.0000 C   0  0  0  0  0  0  0  0  0  0  0  0
    6.0622    9.1000    0.0000 C   0  0  0  0  0  0  0  0  0  0  0  0
    4.8497    7.0000    0.0000 O   0  0  0  0  0  0  0  0  0  0  0  0
    7.3411    8.5306    0.0000 N   0  0  0  0  0  0  0  0  0  0  0  0
    8.2779    9.5710    0.0000 C   0  0  0  0  0  0  0  0  0  0  0  0
    7.5779   10.7834    0.0000 O   0  0  0  0  0  0  0  0  0  0  0  0
    6.2085   10.4923    0.0000 N   0  0  0  0  0  0  0  0  0  0  0  0
    9.6703    9.4246    0.0000 C   0  0  0  0  0  0  0  0  0  0  0  0
   10.4932   10.5573    0.0000 C   0  0  0  0  0  0  0  0  0  0  0  0
   10.2397    8.1457    0.0000 C   0  0  0  0  0  0  0  0  0  0  0  0
   11.0226    9.0623    0.0000 C   0  0  0  0  0  0  0  0  0  0  0  0
    7.1917    1.4000    0.0000 C   0  0  0  0  0  0  0  0  0  0  0  0
    8.0146    0.2674    0.0000 C   0  0  0  0  0  0  0  0  0  0  0  0
    9.3461    0.7000    0.0000 N   0  0  0  0  0  0  0  0  0  0  0  0
    9.3461    2.1000    0.0000 N   0  0  0  0  0  0  0  0  0  0  0  0
    8.0146    2.5326    0.0000 C   0  0  0  0  0  0  0  0  0  0  0  0
   10.4787    2.9229    0.0000 C   0  0  0  0  0  0  0  0  0  0  0  0
  1  2  2  0  0  0  0
  2  3  1  0  0  0  0
  3  4  2  0  0  0  0
  4  5  1  0  0  0  0
  5  6  2  0  0  0  0
  6  1  1  0  0  0  0
  6  7  1  0  0  0  0
  4  8  1  0  0  0  0
  8  9  1  0  0  0  0
  9 10  2  0  0  0  0
 10  5  1  0  0  0  0
  7 11  2  0  0  0  0
 11 12  1  0  0  0  0
 12 13  2  0  0  0  0
 13 14  1  0  0  0  0
 14 15  2  0  0  0  0
 15  7  1  0  0  0  0
 14 16  1  0  0  0  0
 13 17  1  0  0  0  0
 17 18  1  0  0  0  0
 18 19  1  0  0  0  0
 19 20  1  0  0  0  0
 19 21  2  0  0  0  0
 20 22  1  0  0  0  0
 22 23  2  0  0  0  0
 23 24  1  0  0  0  0
 24 25  1  0  0  0  0
 25 20  2  0  0  0  0
 23 26  1  0  0  0  0
 26 27  1  0  0  0  0
 26 28  1  0  0  0  0
 26 29  1  0  0  0  0
  9 30  1  0  0  0  0
 30 31  1  0  0  0  0
 31 32  2  0  0  0  0
 32 33  1  0  0  0  0
 33 34  1  0  0  0  0
 34 30  2  0  0  0  0
 33 35  1  0  0  0  0
M  END
>  <Mol_ID> (746)
4924

>  <Formula> (746)
C24H23FN8O2

>  <MolWeight> (746)
474.4902232

>  <Cat> (746)
S8679

>  <Name> (746)
BTK inhibitor 1 (Compound 27)

>  <Synonyms> (746)
N/A

>  <Target> (746)
BTK

>  <Form> (746)
Free Base

>  <CAS> (746)
2230724-66-8

>  <URL> (746)
http://www.selleckchem.com/products/btk-inhibitor-1-compound27.html

$$$$

csChFnd80/05071909292D

 21 23  0  0  0  0  0  0  0  0999 V2000
    2.7374    2.1544    0.0000 C   0  0  0  0  0  0  0  0  0  0  0  0
    4.1374    2.1544    0.0000 C   0  0  0  0  0  0  0  0  0  0  0  0
    4.8374    3.3668    0.0000 C   0  0  0  0  0  0  0  0  0  0  0  0
    4.1374    4.5792    0.0000 C   0  0  0  0  0  0  0  0  0  0  0  0
    2.7374    4.5792    0.0000 C   0  0  0  0  0  0  0  0  0  0  0  0
    2.0374    3.3668    0.0000 C   0  0  0  0  0  0  0  0  0  0  0  0
    2.3048    0.8229    0.0000 N   0  0  0  0  0  0  0  0  0  0  0  0
    3.4374    0.0000    0.0000 C   0  0  0  0  0  0  0  0  0  0  0  0
    4.5700    0.8229    0.0000 S   0  0  0  0  0  0  0  0  0  0  0  0
    4.8374    5.7917    0.0000 C   0  0  0  0  0  0  0  0  0  0  0  0
    6.2297    5.9380    0.0000 N   0  0  0  0  0  0  0  0  0  0  0  0
    6.5208    7.3074    0.0000 C   0  0  0  0  0  0  0  0  0  0  0  0
    5.3084    8.0074    0.0000 N   0  0  0  0  0  0  0  0  0  0  0  0
    4.2680    7.0706    0.0000 C   0  0  0  0  0  0  0  0  0  0  0  0
    2.8985    7.3617    0.0000 C   0  0  0  0  0  0  0  0  0  0  0  0
    2.3291    8.6407    0.0000 N   0  0  0  0  0  0  0  0  0  0  0  0
    0.9368    8.4943    0.0000 C   0  0  0  0  0  0  0  0  0  0  0  0
    0.6457    7.1249    0.0000 C   0  0  0  0  0  0  0  0  0  0  0  0
    1.8581    6.4249    0.0000 S   0  0  0  0  0  0  0  0  0  0  0  0
    0.0000    9.5348    0.0000 C   0  0  0  0  0  0  0  0  0  0  0  0
    6.9018    2.7765    0.0000 Cl  0  0  0  0  0  0  0  0  0  0  0  0
  1  2  2  0  0  0  0
  2  3  1  0  0  0  0
  3  4  2  0  0  0  0
  4  5  1  0  0  0  0
  5  6  2  0  0  0  0
  6  1  1  0  0  0  0
  1  7  1  0  0  0  0
  7  8  2  0  0  0  0
  8  9  1  0  0  0  0
  9  2  1  0  0  0  0
  4 10  1  0  0  0  0
 10 11  1  0  0  0  0
 11 12  1  0  0  0  0
 12 13  2  0  0  0  0
 13 14  1  0  0  0  0
 14 10  2  0  0  0  0
 14 15  1  0  0  0  0
 15 16  2  0  0  0  0
 16 17  1  0  0  0  0
 17 18  2  0  0  0  0
 18 19  1  0  0  0  0
 19 15  1  0  0  0  0
 17 20  1  0  0  0  0
M  END
>  <Mol_ID> (747)
4926

>  <Formula> (747)
C14H11ClN4S2

>  <MolWeight> (747)
334.84694

>  <Cat> (747)
S8700

>  <Name> (747)
TP0427736 HCl

>  <Synonyms> (747)
N/A

>  <Target> (747)
ALK

>  <Form> (747)
hydrochloride

>  <CAS> (747)
864374-00-5

>  <URL> (747)
http://www.selleckchem.com/products/tp0427736-hcl.html

$$$$

csChFnd80/05071909292D

 36 39  0  0  0  0  0  0  0  0999 V2000
    2.4725    3.5000    0.0000 C   0  0  0  0  0  0  0  0  0  0  0  0
    2.4725    2.1000    0.0000 C   0  0  0  0  0  0  0  0  0  0  0  0
    3.6849    1.4000    0.0000 C   0  0  0  0  0  0  0  0  0  0  0  0
    4.8974    2.1000    0.0000 C   0  0  0  0  0  0  0  0  0  0  0  0
    4.8974    3.5000    0.0000 C   0  0  0  0  0  0  0  0  0  0  0  0
    3.6849    4.2000    0.0000 C   0  0  0  0  0  0  0  0  0  0  0  0
    1.2601    1.4000    0.0000 C   0  0  0  0  0  0  0  0  0  0  0  0
    3.6849    5.6000    0.0000 C   0  0  0  0  0  0  0  0  0  0  0  0
    6.1098    4.2000    0.0000 O   0  0  0  0  0  0  0  0  0  0  0  0
    7.3222    3.5000    0.0000 C   0  0  0  0  0  0  0  0  0  0  0  0
    7.3222    2.1000    0.0000 C   0  0  0  0  0  0  0  0  0  0  0  0
    8.5347    1.4000    0.0000 C   0  0  0  0  0  0  0  0  0  0  0  0
    9.7471    2.1000    0.0000 C   0  0  0  0  0  0  0  0  0  0  0  0
    9.7471    3.5000    0.0000 C   0  0  0  0  0  0  0  0  0  0  0  0
    8.5347    4.2000    0.0000 C   0  0  0  0  0  0  0  0  0  0  0  0
    6.1098    1.4000    0.0000 C   0  0  0  0  0  0  0  0  0  0  0  0
    8.5347    5.6000    0.0000 C   0  0  0  0  0  0  0  0  0  0  0  0
   10.9595    1.4000    0.0000 F   0  0  0  0  0  0  0  0  0  0  0  0
    4.8974    6.3000    0.0000 C   0  0  0  0  0  0  0  0  0  0  0  0
    4.8974    7.7000    0.0000 C   0  0  0  0  0  0  0  0  0  0  0  0
    3.6849    8.4000    0.0000 C   0  0  0  0  0  0  0  0  0  0  0  0
    2.4725    7.7000    0.0000 N   0  0  0  0  0  0  0  0  0  0  0  0
    2.4725    6.3000    0.0000 C   0  0  0  0  0  0  0  0  0  0  0  0
    6.2288    5.8674    0.0000 C   0  0  0  0  0  0  0  0  0  0  0  0
    7.0517    7.0000    0.0000 C   0  0  0  0  0  0  0  0  0  0  0  0
    6.2288    8.1326    0.0000 N   0  0  0  0  0  0  0  0  0  0  0  0
    3.6849    9.8000    0.0000 O   0  0  0  0  0  0  0  0  0  0  0  0
    1.2601    8.4000    0.0000 C   0  0  0  0  0  0  0  0  0  0  0  0
    0.0476    2.1000    0.0000 C   0  0  0  0  0  0  0  0  0  0  0  0
    1.2601    0.0000    0.0000 O   0  0  0  0  0  0  0  0  0  0  0  0
    0.0000    0.7899    0.0000 C   0  0  0  0  0  0  0  0  0  0  0  0
    8.4517    7.0000    0.0000 C   0  0  0  0  0  0  0  0  0  0  0  0
    9.1517    8.2124    0.0000 N   0  0  0  0  0  0  0  0  0  0  0  0
    9.1517    5.7876    0.0000 O   0  0  0  0  0  0  0  0  0  0  0  0
   10.5517    8.2124    0.0000 C   0  0  0  0  0  0  0  0  0  0  0  0
   11.2517    7.0000    0.0000 C   0  0  0  0  0  0  0  0  0  0  0  0
  1  2  2  0  0  0  0
  2  3  1  0  0  0  0
  3  4  2  0  0  0  0
  4  5  1  0  0  0  0
  5  6  2  0  0  0  0
  6  1  1  0  0  0  0
  2  7  1  0  0  0  0
  6  8  1  0  0  0  0
  5  9  1  0  0  0  0
  9 10  1  0  0  0  0
 10 11  2  0  0  0  0
 11 12  1  0  0  0  0
 12 13  2  0  0  0  0
 13 14  1  0  0  0  0
 14 15  2  0  0  0  0
 15 10  1  0  0  0  0
 11 16  1  0  0  0  0
 15 17  1  0  0  0  0
 13 18  1  0  0  0  0
  8 19  1  0  0  0  0
 19 20  2  0  0  0  0
 20 21  1  0  0  0  0
 21 22  1  0  0  0  0
 22 23  1  0  0  0  0
 23  8  2  0  0  0  0
 19 24  1  0  0  0  0
 24 25  2  0  0  0  0
 25 26  1  0  0  0  0
 26 20  1  0  0  0  0
 21 27  2  0  0  0  0
 22 28  1  0  0  0  0
  7 29  1  0  0  0  0
  7 30  1  0  0  0  0
  7 31  1  0  0  0  0
 25 32  1  0  0  0  0
 32 33  1  0  0  0  0
 32 34  2  0  0  0  0
 33 35  1  0  0  0  0
 35 36  1  0  0  0  0
M  END
>  <Mol_ID> (748)
4929

>  <Formula> (748)
C28H30FN3O4

>  <MolWeight> (748)
491.5539032

>  <Cat> (748)
S8723

>  <Name> (748)
ABBV-744

>  <Synonyms> (748)
N/A

>  <Target> (748)
Epigenetic Reader Do

>  <Form> (748)
Free Base

>  <CAS> (748)
2138861-99-9

>  <URL> (748)
http://www.selleckchem.com/products/abbv-744.html

$$$$

csChFnd80/05071909292D

 27 29  0  0  0  0  0  0  0  0999 V2000
    1.2124    2.1000    0.0000 C   0  0  0  0  0  0  0  0  0  0  0  0
    1.2124    0.7000    0.0000 C   0  0  0  0  0  0  0  0  0  0  0  0
    2.4249    0.0000    0.0000 C   0  0  0  0  0  0  0  0  0  0  0  0
    3.6373    0.7000    0.0000 C   0  0  0  0  0  0  0  0  0  0  0  0
    3.6373    2.1000    0.0000 C   0  0  0  0  0  0  0  0  0  0  0  0
    2.4249    2.8000    0.0000 C   0  0  0  0  0  0  0  0  0  0  0  0
    0.0000    0.0000    0.0000 F   0  0  0  0  0  0  0  0  0  0  0  0
    4.8497    0.0000    0.0000 O   0  0  0  0  0  0  0  0  0  0  0  0
    4.8497    2.8000    0.0000 C   0  0  0  0  0  0  0  0  0  0  0  0
    6.0622    2.1000    0.0000 N   0  0  0  0  0  0  0  0  0  0  0  0
    7.2746    2.8000    0.0000 C   0  0  0  0  0  0  0  0  0  0  0  0
    7.2746    4.2000    0.0000 N   0  0  0  0  0  0  0  0  0  0  0  0
    6.0622    4.9000    0.0000 C   0  0  0  0  0  0  0  0  0  0  0  0
    4.8497    4.2000    0.0000 N   0  0  0  0  0  0  0  0  0  0  0  0
    8.4870    2.1000    0.0000 N   0  0  0  0  0  0  0  0  0  0  0  0
    9.6995    2.8000    0.0000 C   0  0  0  0  0  0  0  0  0  0  0  0
   10.9119    2.1000    0.0000 C   0  0  0  0  0  0  0  0  0  0  0  0
   12.1244    2.8000    0.0000 C   0  0  0  0  0  0  0  0  0  0  0  0
   12.1244    4.2000    0.0000 C   0  0  0  0  0  0  0  0  0  0  0  0
   10.9119    4.9000    0.0000 C   0  0  0  0  0  0  0  0  0  0  0  0
    9.6995    4.2000    0.0000 C   0  0  0  0  0  0  0  0  0  0  0  0
   13.3368    2.1000    0.0000 C   0  0  0  0  0  0  0  0  0  0  0  0
   14.5492    2.8000    0.0000 S   0  0  3  0  0  0  0  0  0  0  0  0
   13.8492    4.0124    0.0000 O   0  0  0  0  0  0  0  0  0  0  0  0
   15.2492    1.5876    0.0000 N   0  0  0  0  0  0  0  0  0  0  0  0
   15.7617    3.5000    0.0000 C   0  0  0  0  0  0  0  0  0  0  0  0
    6.0622    0.7000    0.0000 C   0  0  0  0  0  0  0  0  0  0  0  0
  1  2  2  0  0  0  0
  2  3  1  0  0  0  0
  3  4  2  0  0  0  0
  4  5  1  0  0  0  0
  5  6  2  0  0  0  0
  6  1  1  0  0  0  0
  2  7  1  0  0  0  0
  4  8  1  0  0  0  0
  5  9  1  0  0  0  0
  9 10  2  0  0  0  0
 10 11  1  0  0  0  0
 11 12  2  0  0  0  0
 12 13  1  0  0  0  0
 13 14  2  0  0  0  0
 14  9  1  0  0  0  0
 11 15  1  0  0  0  0
 15 16  1  0  0  0  0
 16 17  2  0  0  0  0
 17 18  1  0  0  0  0
 18 19  2  0  0  0  0
 19 20  1  0  0  0  0
 20 21  2  0  0  0  0
 21 16  1  0  0  0  0
 18 22  1  0  0  0  0
 22 23  1  0  0  0  0
 23 24  2  0  0  0  0
 23 25  2  0  0  0  0
 23 26  1  0  0  0  0
  8 27  1  0  0  0  0
M  END
>  <Mol_ID> (749)
4930

>  <Formula> (749)
C18H18FN5O2S

>  <MolWeight> (749)
387.4312232

>  <Cat> (749)
S8727

>  <Name> (749)
Atuveciclib (BAY-1143572)

>  <Synonyms> (749)
N/A

>  <Target> (749)
CDK

>  <Form> (749)
Free Base

>  <CAS> (749)
1414943-88-6

>  <URL> (749)
http://www.selleckchem.com/products/atuveciclib-bay-1143572.html

$$$$

csChFnd80/05071909292D

 25 28  0  0  0  0  0  0  0  0999 V2000
    0.0000    4.2000    0.0000 C   0  0  0  0  0  0  0  0  0  0  0  0
    0.0000    2.8000    0.0000 C   0  0  0  0  0  0  0  0  0  0  0  0
    1.2124    2.1000    0.0000 C   0  0  0  0  0  0  0  0  0  0  0  0
    2.4249    2.8000    0.0000 C   0  0  0  0  0  0  0  0  0  0  0  0
    2.4249    4.2000    0.0000 C   0  0  0  0  0  0  0  0  0  0  0  0
    1.2124    4.9000    0.0000 C   0  0  0  0  0  0  0  0  0  0  0  0
    3.6373    2.1000    0.0000 C   0  0  0  0  0  0  0  0  0  0  0  0
    3.6373    0.7000    0.0000 N   0  0  0  0  0  0  0  0  0  0  0  0
    4.8497    0.0000    0.0000 C   0  0  0  0  0  0  0  0  0  0  0  0
    6.0622    0.7000    0.0000 C   0  0  0  0  0  0  0  0  0  0  0  0
    6.0622    2.1000    0.0000 N   0  0  0  0  0  0  0  0  0  0  0  0
    4.8497    2.8000    0.0000 C   0  0  0  0  0  0  0  0  0  0  0  0
    7.3937    0.2674    0.0000 N   0  0  0  0  0  0  0  0  0  0  0  0
    8.2166    1.4000    0.0000 C   0  0  0  0  0  0  0  0  0  0  0  0
    7.3937    2.5326    0.0000 C   0  0  0  0  0  0  0  0  0  0  0  0
    7.8263    3.8641    0.0000 C   0  0  0  0  0  0  0  0  0  0  0  0
    9.1957    4.1552    0.0000 C   0  0  0  0  0  0  0  0  0  0  0  0
    9.6283    5.4867    0.0000 C   0  0  0  0  0  0  0  0  0  0  0  0
    8.6915    6.5271    0.0000 C   0  0  0  0  0  0  0  0  0  0  0  0
    7.3221    6.2360    0.0000 C   0  0  0  0  0  0  0  0  0  0  0  0
    6.8895    4.9045    0.0000 C   0  0  0  0  0  0  0  0  0  0  0  0
    9.1242    7.8585    0.0000 C   0  0  0  0  0  0  0  0  0  0  0  0
   10.4936    8.1496    0.0000 N   0  0  0  0  0  0  0  0  0  0  0  0
    8.1874    8.8989    0.0000 O   0  0  0  0  0  0  0  0  0  0  0  0
   10.9262    9.4811    0.0000 C   0  0  0  0  0  0  0  0  0  0  0  0
  1  2  2  0  0  0  0
  2  3  1  0  0  0  0
  3  4  2  0  0  0  0
  4  5  1  0  0  0  0
  5  6  2  0  0  0  0
  6  1  1  0  0  0  0
  4  7  1  0  0  0  0
  7  8  1  0  0  0  0
  8  9  2  0  0  0  0
  9 10  1  0  0  0  0
 10 11  1  0  0  0  0
 11 12  1  0  0  0  0
 12  7  2  0  0  0  0
 10 13  2  0  0  0  0
 13 14  1  0  0  0  0
 14 15  2  0  0  0  0
 15 11  1  0  0  0  0
 15 16  1  0  0  0  0
 16 17  2  0  0  0  0
 17 18  1  0  0  0  0
 18 19  2  0  0  0  0
 19 20  1  0  0  0  0
 20 21  2  0  0  0  0
 21 16  1  0  0  0  0
 19 22  1  0  0  0  0
 22 23  1  0  0  0  0
 22 24  2  0  0  0  0
 23 25  1  0  0  0  0
M  END
>  <Mol_ID> (750)
4931

>  <Formula> (750)
C20H16N4O

>  <MolWeight> (750)
328.36724

>  <Cat> (750)
S8729

>  <Name> (750)
AZ32

>  <Synonyms> (750)
N/A

>  <Target> (750)
ATM/ATR

>  <Form> (750)
Free Base

>  <CAS> (750)
No CAS

>  <URL> (750)
http://www.selleckchem.com/products/az32.html

$$$$

csChFnd80/05071909292D

 29 32  0  0  0  0  0  0  0  0999 V2000
    3.6373    4.2000    0.0000 N   0  0  0  0  0  0  0  0  0  0  0  0
    3.6373    2.8000    0.0000 C   0  0  0  0  0  0  0  0  0  0  0  0
    4.8497    2.1000    0.0000 N   0  0  0  0  0  0  0  0  0  0  0  0
    6.0622    2.8000    0.0000 C   0  0  0  0  0  0  0  0  0  0  0  0
    6.0622    4.2000    0.0000 N   0  0  0  0  0  0  0  0  0  0  0  0
    4.8497    4.9000    0.0000 C   0  0  0  0  0  0  0  0  0  0  0  0
    4.8497    6.3000    0.0000 N   0  0  0  0  0  0  0  0  0  0  0  0
    2.4249    2.1000    0.0000 N   0  0  0  0  0  0  0  0  0  0  0  0
    7.2746    2.1000    0.0000 C   0  0  0  0  0  0  0  0  0  0  0  0
    7.2746    0.7000    0.0000 C   0  0  0  0  0  0  0  0  0  0  0  0
    8.4870    0.0000    0.0000 N   0  0  0  0  0  0  0  0  0  0  0  0
    9.6995    0.7000    0.0000 C   0  0  0  0  0  0  0  0  0  0  0  0
    9.6995    2.1000    0.0000 C   0  0  0  0  0  0  0  0  0  0  0  0
    8.4870    2.8000    0.0000 C   0  0  0  0  0  0  0  0  0  0  0  0
    6.0622    7.0000    0.0000 C   0  0  0  0  0  0  0  0  0  0  0  0
    6.0622    8.4000    0.0000 C   0  0  0  0  0  0  0  0  0  0  0  0
    4.8497    9.1000    0.0000 O   0  0  0  0  0  0  0  0  0  0  0  0
    3.6373    8.4000    0.0000 C   0  0  0  0  0  0  0  0  0  0  0  0
    3.6373    7.0000    0.0000 C   0  0  0  0  0  0  0  0  0  0  0  0
    1.2124    2.8000    0.0000 C   0  0  0  0  0  0  0  0  0  0  0  0
    0.0000    2.1000    0.0000 C   0  0  0  0  0  0  0  0  0  0  0  0
    0.0000    0.7000    0.0000 O   0  0  0  0  0  0  0  0  0  0  0  0
    1.2124    0.0000    0.0000 C   0  0  0  0  0  0  0  0  0  0  0  0
    2.4249    0.7000    0.0000 C   0  0  0  0  0  0  0  0  0  0  0  0
    8.4870    4.2000    0.0000 C   0  0  0  0  0  0  0  0  0  0  0  0
    9.8870    4.2000    0.0000 F   0  0  0  0  0  0  0  0  0  0  0  0
    7.0870    4.2000    0.0000 F   0  0  0  0  0  0  0  0  0  0  0  0
    8.4870    5.6000    0.0000 F   0  0  0  0  0  0  0  0  0  0  0  0
   10.9119    0.0000    0.0000 N   0  0  0  0  0  0  0  0  0  0  0  0
  1  2  2  0  0  0  0
  2  3  1  0  0  0  0
  3  4  2  0  0  0  0
  4  5  1  0  0  0  0
  5  6  2  0  0  0  0
  6  1  1  0  0  0  0
  6  7  1  0  0  0  0
  2  8  1  0  0  0  0
  4  9  1  0  0  0  0
  9 10  2  0  0  0  0
 10 11  1  0  0  0  0
 11 12  2  0  0  0  0
 12 13  1  0  0  0  0
 13 14  2  0  0  0  0
 14  9  1  0  0  0  0
  7 15  1  0  0  0  0
 15 16  1  0  0  0  0
 16 17  1  0  0  0  0
 17 18  1  0  0  0  0
 18 19  1  0  0  0  0
 19  7  1  0  0  0  0
  8 20  1  0  0  0  0
 20 21  1  0  0  0  0
 21 22  1  0  0  0  0
 22 23  1  0  0  0  0
 23 24  1  0  0  0  0
 24  8  1  0  0  0  0
 14 25  1  0  0  0  0
 12 29  1  0  0  0  0
 25 26  1  0  0  0  0
 25 27  1  0  0  0  0
 25 28  1  0  0  0  0
M  END
>  <Mol_ID> (751)
4933

>  <Formula> (751)
C17H20F3N7O2

>  <MolWeight> (751)
411.3816096

>  <Cat> (751)
S8738

>  <Name> (751)
Bimiralisib (PQR309)

>  <Synonyms> (751)
N/A

>  <Target> (751)
PI3K

>  <Form> (751)
Free Base

>  <CAS> (751)
1225037-39-7

>  <URL> (751)
http://www.selleckchem.com/products/pqr309-bimiralisib.html

$$$$

csChFnd80/05071909292D

 36 40  0  0  0  0  0  0  0  0999 V2000
    3.6373   16.1000    0.0000 C   0  0  0  0  0  0  0  0  0  0  0  0
    3.6373   14.7000    0.0000 C   0  0  0  0  0  0  0  0  0  0  0  0
    4.8497   14.0000    0.0000 C   0  0  0  0  0  0  0  0  0  0  0  0
    6.0622   14.7000    0.0000 C   0  0  0  0  0  0  0  0  0  0  0  0
    6.0622   16.1000    0.0000 C   0  0  0  0  0  0  0  0  0  0  0  0
    4.8497   16.8000    0.0000 C   0  0  0  0  0  0  0  0  0  0  0  0
    2.4249   14.0000    0.0000 N   0  0  0  0  0  0  0  0  0  0  0  0
    1.2124   14.7000    0.0000 C   0  0  0  0  0  0  0  0  0  0  0  0
    0.0000   14.0000    0.0000 O   0  0  0  0  0  0  0  0  0  0  0  0
    1.2124   16.1000    0.0000 C   0  0  0  0  0  0  0  0  0  0  0  0
    0.0000   16.8000    0.0000 C   0  0  0  0  0  0  0  0  0  0  0  0
    7.2746   14.0000    0.0000 O   0  0  0  0  0  0  0  0  0  0  0  0
    7.2746   12.6000    0.0000 C   0  0  0  0  0  0  0  0  0  0  0  0
    6.0622   11.9000    0.0000 N   0  0  0  0  0  0  0  0  0  0  0  0
    6.0622   10.5000    0.0000 C   0  0  0  0  0  0  0  0  0  0  0  0
    7.2746    9.8000    0.0000 N   0  0  0  0  0  0  0  0  0  0  0  0
    8.4870   10.5000    0.0000 C   0  0  0  0  0  0  0  0  0  0  0  0
    8.4870   11.9000    0.0000 C   0  0  0  0  0  0  0  0  0  0  0  0
    9.8185   10.0674    0.0000 N   0  0  0  0  0  0  0  0  0  0  0  0
   10.6414   11.2000    0.0000 C   0  0  0  0  0  0  0  0  0  0  0  0
    9.8185   12.3326    0.0000 C   0  0  0  0  0  0  0  0  0  0  0  0
    4.8497    9.8000    0.0000 N   0  0  0  0  0  0  0  0  0  0  0  0
    4.8497    8.4000    0.0000 C   0  0  0  0  0  0  0  0  0  0  0  0
    3.6373    7.7000    0.0000 C   0  0  0  0  0  0  0  0  0  0  0  0
    3.6373    6.3000    0.0000 C   0  0  0  0  0  0  0  0  0  0  0  0
    4.8497    5.6000    0.0000 C   0  0  0  0  0  0  0  0  0  0  0  0
    6.0622    6.3000    0.0000 C   0  0  0  0  0  0  0  0  0  0  0  0
    6.0622    7.7000    0.0000 C   0  0  0  0  0  0  0  0  0  0  0  0
    2.4249    5.6000    0.0000 F   0  0  0  0  0  0  0  0  0  0  0  0
    4.8497    4.2000    0.0000 N   0  0  0  0  0  0  0  0  0  0  0  0
    3.6373    3.5000    0.0000 C   0  0  0  0  0  0  0  0  0  0  0  0
    3.6373    2.1000    0.0000 C   0  0  0  0  0  0  0  0  0  0  0  0
    4.8497    1.4000    0.0000 N   0  0  0  0  0  0  0  0  0  0  0  0
    6.0622    2.1000    0.0000 C   0  0  0  0  0  0  0  0  0  0  0  0
    6.0622    3.5000    0.0000 C   0  0  0  0  0  0  0  0  0  0  0  0
    4.8497    0.0000    0.0000 C   0  0  0  0  0  0  0  0  0  0  0  0
  1  2  2  0  0  0  0
  2  3  1  0  0  0  0
  3  4  2  0  0  0  0
  4  5  1  0  0  0  0
  5  6  2  0  0  0  0
  6  1  1  0  0  0  0
  2  7  1  0  0  0  0
  7  8  1  0  0  0  0
  8  9  2  0  0  0  0
  8 10  1  0  0  0  0
 10 11  2  0  0  0  0
  4 12  1  0  0  0  0
 12 13  1  0  0  0  0
 13 14  2  0  0  0  0
 14 15  1  0  0  0  0
 15 16  2  0  0  0  0
 16 17  1  0  0  0  0
 17 18  2  0  0  0  0
 18 13  1  0  0  0  0
 17 19  1  0  0  0  0
 19 20  1  0  0  0  0
 20 21  2  0  0  0  0
 21 18  1  0  0  0  0
 15 22  1  0  0  0  0
 22 23  1  0  0  0  0
 23 24  2  0  0  0  0
 24 25  1  0  0  0  0
 25 26  2  0  0  0  0
 26 27  1  0  0  0  0
 27 28  2  0  0  0  0
 28 23  1  0  0  0  0
 25 29  1  0  0  0  0
 26 30  1  0  0  0  0
 30 31  1  0  0  0  0
 31 32  1  0  0  0  0
 32 33  1  0  0  0  0
 33 34  1  0  0  0  0
 34 35  1  0  0  0  0
 35 30  1  0  0  0  0
 33 36  1  0  0  0  0
M  END
>  <Mol_ID> (752)
4934

>  <Formula> (752)
C26H26FN7O2

>  <MolWeight> (752)
487.5287432

>  <Cat> (752)
S8741

>  <Name> (752)
Avitinib (AC0010)

>  <Synonyms> (752)
N/A

>  <Target> (752)
EGFR

>  <Form> (752)
Free Base

>  <CAS> (752)
1557267-42-1

>  <URL> (752)
http://www.selleckchem.com/products/avitinib-ac0010.html

$$$$

csChFnd80/05071909292D

 36 39  0  0  0  0  0  0  0  0999 V2000
    8.4870   14.0000    0.0000 C   0  0  0  0  0  0  0  0  0  0  0  0
    8.4870   12.6000    0.0000 C   0  0  0  0  0  0  0  0  0  0  0  0
    9.6995   11.9000    0.0000 C   0  0  0  0  0  0  0  0  0  0  0  0
   10.9119   12.6000    0.0000 C   0  0  0  0  0  0  0  0  0  0  0  0
   10.9119   14.0000    0.0000 N   0  0  0  0  0  0  0  0  0  0  0  0
    9.6995   14.7000    0.0000 C   0  0  0  0  0  0  0  0  0  0  0  0
    7.2746   11.9000    0.0000 C   0  0  0  0  0  0  0  0  0  0  0  0
    6.0622   12.6000    0.0000 O   0  0  0  0  0  0  0  0  0  0  0  0
    7.2746   10.5000    0.0000 N   0  0  0  0  0  0  0  0  0  0  0  0
    6.0622    9.8000    0.0000 C   0  0  0  0  0  0  0  0  0  0  0  0
    4.8497   10.5000    0.0000 C   0  0  0  0  0  0  0  0  0  0  0  0
    3.6373    9.8000    0.0000 C   0  0  0  0  0  0  0  0  0  0  0  0
    3.6373    8.4000    0.0000 C   0  0  0  0  0  0  0  0  0  0  0  0
    4.8497    7.7000    0.0000 C   0  0  0  0  0  0  0  0  0  0  0  0
    6.0622    8.4000    0.0000 C   0  0  0  0  0  0  0  0  0  0  0  0
    2.4249    7.7000    0.0000 C   0  0  0  0  0  0  0  0  0  0  0  0
    4.8497    6.3000    0.0000 C   0  0  0  0  0  0  0  0  0  0  0  0
    3.6373    5.6000    0.0000 C   0  0  0  0  0  0  0  0  0  0  0  0
    3.6373    4.2000    0.0000 C   0  0  0  0  0  0  0  0  0  0  0  0
    4.8497    3.5000    0.0000 N   0  0  0  0  0  0  0  0  0  0  0  0
    6.0622    4.2000    0.0000 C   0  0  0  0  0  0  0  0  0  0  0  0
    6.0622    5.6000    0.0000 C   0  0  0  0  0  0  0  0  0  0  0  0
    2.4249    3.5000    0.0000 N   0  0  0  0  0  0  0  0  0  0  0  0
    7.2746    3.5000    0.0000 O   0  0  0  0  0  0  0  0  0  0  0  0
    7.2746    2.1000    0.0000 C   0  0  0  0  0  0  0  0  0  0  0  0
    8.4870    1.4000    0.0000 C   0  0  0  0  0  0  0  0  0  0  0  0
    8.4870    0.0000    0.0000 O   0  0  0  0  0  0  0  0  0  0  0  0
    1.2124    4.2000    0.0000 C   0  0  0  0  0  0  0  0  0  0  0  0
    0.0000    3.5000    0.0000 C   0  0  0  0  0  0  0  0  0  0  0  0
    0.0000    2.1000    0.0000 O   0  0  0  0  0  0  0  0  0  0  0  0
    1.2124    1.4000    0.0000 C   0  0  0  0  0  0  0  0  0  0  0  0
    2.4249    2.1000    0.0000 C   0  0  0  0  0  0  0  0  0  0  0  0
    9.6995   16.1000    0.0000 C   0  0  0  0  0  0  0  0  0  0  0  0
    8.4870   16.8000    0.0000 F   0  0  0  0  0  0  0  0  0  0  0  0
   10.9119   16.8000    0.0000 F   0  0  0  0  0  0  0  0  0  0  0  0
    9.6995   17.5000    0.0000 F   0  0  0  0  0  0  0  0  0  0  0  0
  1  2  2  0  0  0  0
  2  3  1  0  0  0  0
  3  4  2  0  0  0  0
  4  5  1  0  0  0  0
  5  6  2  0  0  0  0
  6  1  1  0  0  0  0
  2  7  1  0  0  0  0
  7  8  2  0  0  0  0
  7  9  1  0  0  0  0
  9 10  1  0  0  0  0
 10 11  2  0  0  0  0
 11 12  1  0  0  0  0
 12 13  2  0  0  0  0
 13 14  1  0  0  0  0
 14 15  2  0  0  0  0
 15 10  1  0  0  0  0
 13 16  1  0  0  0  0
 14 17  1  0  0  0  0
 17 18  2  0  0  0  0
 18 19  1  0  0  0  0
 19 20  2  0  0  0  0
 20 21  1  0  0  0  0
 21 22  2  0  0  0  0
 22 17  1  0  0  0  0
 19 23  1  0  0  0  0
 21 24  1  0  0  0  0
 24 25  1  0  0  0  0
 25 26  1  0  0  0  0
 26 27  1  0  0  0  0
 23 28  1  0  0  0  0
 28 29  1  0  0  0  0
 29 30  1  0  0  0  0
 30 31  1  0  0  0  0
 31 32  1  0  0  0  0
 32 23  1  0  0  0  0
  6 33  1  0  0  0  0
 33 34  1  0  0  0  0
 33 35  1  0  0  0  0
 33 36  1  0  0  0  0
M  END
>  <Mol_ID> (753)
4936

>  <Formula> (753)
C25H25F3N4O4

>  <MolWeight> (753)
502.4856096

>  <Cat> (753)
S8745

>  <Name> (753)
LXH254

>  <Synonyms> (753)
N/A

>  <Target> (753)
Raf

>  <Form> (753)
Free Base

>  <CAS> (753)
1800398-38-2

>  <URL> (753)
http://www.selleckchem.com/products/lxh254.html

$$$$

csChFnd80/05071909292D

 32 35  0  0  0  0  0  0  0  0999 V2000
    2.4938    3.7834    0.0000 C   0  0  0  0  0  0  0  0  0  0  0  0
    2.4938    2.3834    0.0000 C   0  0  0  0  0  0  0  0  0  0  0  0
    3.7062    1.6834    0.0000 N   0  0  0  0  0  0  0  0  0  0  0  0
    4.9187    2.3834    0.0000 C   0  0  0  0  0  0  0  0  0  0  0  0
    4.9187    3.7834    0.0000 C   0  0  0  0  0  0  0  0  0  0  0  0
    3.7062    4.4834    0.0000 C   0  0  0  0  0  0  0  0  0  0  0  0
    1.2814    4.4834    0.0000 C   0  0  0  0  0  0  0  0  0  0  0  0
    6.1311    4.4834    0.0000 N   0  0  0  0  0  0  0  0  0  0  0  0
    7.3435    3.7834    0.0000 C   0  0  0  0  0  0  0  0  0  0  0  0
    8.5560    4.4834    0.0000 C   0  0  0  0  0  0  0  0  0  0  0  0
    8.5560    5.8834    0.0000 C   0  0  0  0  0  0  0  0  0  0  0  0
    7.3435    6.5834    0.0000 C   0  0  0  0  0  0  0  0  0  0  0  0
    6.1311    5.8834    0.0000 C   0  0  0  0  0  0  0  0  0  0  0  0
    9.7684    3.7834    0.0000 C   0  0  0  0  0  0  0  0  0  0  0  0
   10.9808    4.4834    0.0000 N   0  0  0  0  0  0  0  0  0  0  0  0
   10.9808    5.8834    0.0000 C   0  0  0  0  0  0  0  0  0  0  0  0
    9.7684    6.5834    0.0000 N   0  0  0  0  0  0  0  0  0  0  0  0
    9.7684    2.3834    0.0000 N   0  0  0  0  0  0  0  0  0  0  0  0
   10.9808    1.6834    0.0000 C   0  0  1  0  0  0  0  0  0  0  0  0
   11.1272    0.2911    0.0000 C   0  0  0  0  0  0  0  0  0  0  0  0
   12.4966    0.0000    0.0000 C   0  0  0  0  0  0  0  0  0  0  0  0
   13.1966    1.2124    0.0000 N   0  0  0  0  0  0  0  0  0  0  0  0
   12.2598    2.2528    0.0000 C   0  0  0  0  0  0  0  0  0  0  0  0
   14.5889    1.3588    0.0000 C   0  0  0  0  0  0  0  0  0  0  0  0
   15.1583    2.6377    0.0000 O   0  0  0  0  0  0  0  0  0  0  0  0
   15.4118    0.2262    0.0000 C   0  0  0  0  0  0  0  0  0  0  0  0
   16.8041    0.3725    0.0000 C   0  0  0  0  0  0  0  0  0  0  0  0
    1.2814    1.6834    0.0000 O   0  0  0  0  0  0  0  0  0  0  0  0
    1.2814    0.2834    0.0000 C   0  0  0  0  0  0  0  0  0  0  0  0
    1.2814    5.8834    0.0000 F   0  0  0  0  0  0  0  0  0  0  0  0
    0.0689    3.7834    0.0000 F   0  0  0  0  0  0  0  0  0  0  0  0
    0.0000    5.0474    0.0000 F   0  0  0  0  0  0  0  0  0  0  0  0
  1  2  2  0  0  0  0
  2  3  1  0  0  0  0
  3  4  2  0  0  0  0
  4  5  1  0  0  0  0
  5  6  2  0  0  0  0
  6  1  1  0  0  0  0
  1  7  1  0  0  0  0
  5  8  1  0  0  0  0
  8  9  1  0  0  0  0
  9 10  1  0  0  0  0
 10 11  2  0  0  0  0
 11 12  1  0  0  0  0
 12 13  1  0  0  0  0
 13  8  1  0  0  0  0
 10 14  1  0  0  0  0
 14 15  2  0  0  0  0
 15 16  1  0  0  0  0
 16 17  2  0  0  0  0
 17 11  1  0  0  0  0
 14 18  1  0  0  0  0
 19 18  1  6  0  0  0
 19 20  1  0  0  0  0
 20 21  1  0  0  0  0
 21 22  1  0  0  0  0
 22 23  1  0  0  0  0
 23 19  1  0  0  0  0
 22 24  1  0  0  0  0
 24 25  2  0  0  0  0
 24 26  1  0  0  0  0
 26 27  1  0  0  0  0
  2 28  1  0  0  0  0
 28 29  1  0  0  0  0
  7 30  1  0  0  0  0
  7 31  1  0  0  0  0
  7 32  1  0  0  0  0
M  END
>  <Mol_ID> (754)
4939

>  <Formula> (754)
C21H25F3N6O2

>  <MolWeight> (754)
450.4574096

>  <Cat> (754)
S8752

>  <Name> (754)
leniolisib(CDZ 173)

>  <Synonyms> (754)
N/A

>  <Target> (754)
PI3K

>  <Form> (754)
Free Base

>  <CAS> (754)
1354690-24-6

>  <URL> (754)
http://www.selleckchem.com/products/leniolisib-cdz-173.html

$$$$

csChFnd80/05071909292D

 29 31  0  0  0  0  0  0  0  0999 V2000
    1.2082    6.2951    0.0000 C   0  0  0  0  0  0  0  0  0  0  0  0
    1.2082    4.8951    0.0000 C   0  0  0  0  0  0  0  0  0  0  0  0
    2.4207    4.1951    0.0000 C   0  0  0  0  0  0  0  0  0  0  0  0
    3.6331    4.8951    0.0000 C   0  0  0  0  0  0  0  0  0  0  0  0
    3.6331    6.2951    0.0000 C   0  0  0  0  0  0  0  0  0  0  0  0
    2.4207    6.9951    0.0000 C   0  0  0  0  0  0  0  0  0  0  0  0
    2.4207    8.3903    0.0000 N   0  3  0  0  0  0  0  0  0  0  0  0
    1.2082    9.0903    0.0000 O   0  0  0  0  0  0  0  0  0  0  0  0
    3.6331    9.0903    0.0000 O   0  5  0  0  0  0  0  0  0  0  0  0
    0.0000    4.1976    0.0000 C   0  0  0  0  0  0  0  0  0  0  0  0
    2.4207    2.8000    0.0000 C   0  0  0  0  0  0  0  0  0  0  0  0
    4.8413    6.9927    0.0000 N   0  0  0  0  0  0  0  0  0  0  0  0
    6.0496    6.2951    0.0000 S   0  0  0  0  0  0  0  0  0  0  0  0
    6.7471    7.5034    0.0000 O   0  0  0  0  0  0  0  0  0  0  0  0
    5.3520    5.0869    0.0000 O   0  0  0  0  0  0  0  0  0  0  0  0
    7.2578    5.5976    0.0000 C   0  0  0  0  0  0  0  0  0  0  0  0
    7.2578    4.1976    0.0000 C   0  0  0  0  0  0  0  0  0  0  0  0
    8.4702    3.4976    0.0000 C   0  0  0  0  0  0  0  0  0  0  0  0
    9.6827    4.1976    0.0000 C   0  0  0  0  0  0  0  0  0  0  0  0
    9.6827    5.5976    0.0000 C   0  0  0  0  0  0  0  0  0  0  0  0
    8.4702    6.2976    0.0000 C   0  0  0  0  0  0  0  0  0  0  0  0
    1.2082    2.1000    0.0000 C   0  0  0  0  0  0  0  0  0  0  0  0
    1.2082    0.7000    0.0000 C   0  0  0  0  0  0  0  0  0  0  0  0
    2.4207    0.0000    0.0000 C   0  0  0  0  0  0  0  0  0  0  0  0
    3.6331    0.7000    0.0000 N   0  0  0  0  0  0  0  0  0  0  0  0
    3.6331    2.1000    0.0000 C   0  0  0  0  0  0  0  0  0  0  0  0
   10.8909    6.2951    0.0000 C   0  0  0  0  0  0  0  0  0  0  0  0
   12.0991    5.5976    0.0000 O   0  0  0  0  0  0  0  0  0  0  0  0
   10.8909    7.6903    0.0000 O   0  0  0  0  0  0  0  0  0  0  0  0
  1  2  2  0  0  0  0
  2  3  1  0  0  0  0
  3  4  2  0  0  0  0
  4  5  1  0  0  0  0
  5  6  2  0  0  0  0
  6  1  1  0  0  0  0
  6  7  1  0  0  0  0
  2 10  1  0  0  0  0
  3 11  1  0  0  0  0
  5 12  1  0  0  0  0
 12 13  1  0  0  0  0
 13 14  2  0  0  0  0
 13 15  2  0  0  0  0
 13 16  1  0  0  0  0
 16 17  2  0  0  0  0
 17 18  1  0  0  0  0
 18 19  2  0  0  0  0
 19 20  1  0  0  0  0
 20 21  2  0  0  0  0
 21 16  1  0  0  0  0
 11 22  2  0  0  0  0
 22 23  1  0  0  0  0
 23 24  2  0  0  0  0
 24 25  1  0  0  0  0
 25 26  2  0  0  0  0
 26 11  1  0  0  0  0
 27 28  1  0  0  0  0
 27 20  1  0  0  0  0
 27 29  2  0  0  0  0
  7  8  2  0  0  0  0
  7  9  1  0  0  0  0
M  END
>  <Mol_ID> (755)
4940

>  <Formula> (755)
C19H15N3O6S

>  <MolWeight> (755)
413.4039

>  <Cat> (755)
S8754

>  <Name> (755)
Alofanib(RPT835)

>  <Synonyms> (755)
N/A

>  <Target> (755)
FGFR

>  <Form> (755)
Free Base

>  <CAS> (755)
1612888-66-0

>  <URL> (755)
http://www.selleckchem.com/products/alofanib-rpt835.html

$$$$

csChFnd80/05071909292D

 33 36  0  0  0  0  0  0  0  0999 V2000
    0.0000    6.3000    0.0000 C   0  0  0  0  0  0  0  0  0  0  0  0
    0.0000    4.9000    0.0000 C   0  0  0  0  0  0  0  0  0  0  0  0
    1.2124    4.2000    0.0000 C   0  0  0  0  0  0  0  0  0  0  0  0
    2.4249    4.9000    0.0000 C   0  0  0  0  0  0  0  0  0  0  0  0
    2.4249    6.3000    0.0000 C   0  0  0  0  0  0  0  0  0  0  0  0
    1.2124    7.0000    0.0000 C   0  0  0  0  0  0  0  0  0  0  0  0
    3.6373    4.2000    0.0000 N   0  0  0  0  0  0  0  0  0  0  0  0
    4.8497    4.9000    0.0000 C   0  0  0  0  0  0  0  0  0  0  0  0
    6.0622    4.2000    0.0000 N   0  0  0  0  0  0  0  0  0  0  0  0
    4.8497    6.3000    0.0000 O   0  0  0  0  0  0  0  0  0  0  0  0
    7.2746    4.9000    0.0000 C   0  0  0  0  0  0  0  0  0  0  0  0
    8.4870    4.2000    0.0000 C   0  0  0  0  0  0  0  0  0  0  0  0
    9.6995    4.9000    0.0000 C   0  0  0  0  0  0  0  0  0  0  0  0
    9.6995    6.3000    0.0000 C   0  0  0  0  0  0  0  0  0  0  0  0
    8.4870    7.0000    0.0000 C   0  0  0  0  0  0  0  0  0  0  0  0
    7.2746    6.3000    0.0000 C   0  0  0  0  0  0  0  0  0  0  0  0
    6.0622    7.0000    0.0000 F   0  0  0  0  0  0  0  0  0  0  0  0
   10.9119    7.0000    0.0000 Br  0  0  0  0  0  0  0  0  0  0  0  0
   10.9119    4.2000    0.0000 C   0  0  0  0  0  0  0  0  0  0  0  0
   10.9119    2.8000    0.0000 C   0  0  0  0  0  0  0  0  0  0  0  0
   12.1244    2.1000    0.0000 N   0  0  0  0  0  0  0  0  0  0  0  0
   13.3368    2.8000    0.0000 C   0  0  0  0  0  0  0  0  0  0  0  0
   13.3368    4.2000    0.0000 C   0  0  0  0  0  0  0  0  0  0  0  0
   12.1244    4.9000    0.0000 C   0  0  0  0  0  0  0  0  0  0  0  0
    9.6995    2.1000    0.0000 O   0  0  0  0  0  0  0  0  0  0  0  0
   12.1244    0.7000    0.0000 C   0  0  0  0  0  0  0  0  0  0  0  0
   10.9119    0.0000    0.0000 C   0  0  0  0  0  0  0  0  0  0  0  0
   14.5492    2.1000    0.0000 C   0  0  0  0  0  0  0  0  0  0  0  0
   15.7617    2.8000    0.0000 C   0  0  0  0  0  0  0  0  0  0  0  0
   15.7617    4.2000    0.0000 N   0  0  0  0  0  0  0  0  0  0  0  0
   14.5492    4.9000    0.0000 C   0  0  0  0  0  0  0  0  0  0  0  0
   16.9741    2.1000    0.0000 N   0  0  0  0  0  0  0  0  0  0  0  0
   18.1865    2.8000    0.0000 C   0  0  0  0  0  0  0  0  0  0  0  0
  1  2  2  0  0  0  0
  2  3  1  0  0  0  0
  3  4  2  0  0  0  0
  4  5  1  0  0  0  0
  5  6  2  0  0  0  0
  6  1  1  0  0  0  0
  4  7  1  0  0  0  0
  7  8  1  0  0  0  0
  8  9  1  0  0  0  0
  8 10  2  0  0  0  0
  9 11  1  0  0  0  0
 11 12  2  0  0  0  0
 12 13  1  0  0  0  0
 13 14  2  0  0  0  0
 14 15  1  0  0  0  0
 15 16  2  0  0  0  0
 16 11  1  0  0  0  0
 16 17  1  0  0  0  0
 14 18  1  0  0  0  0
 13 19  1  0  0  0  0
 19 20  1  0  0  0  0
 20 21  1  0  0  0  0
 21 22  1  0  0  0  0
 22 23  2  0  0  0  0
 23 24  1  0  0  0  0
 24 19  2  0  0  0  0
 20 25  2  0  0  0  0
 21 26  1  0  0  0  0
 26 27  1  0  0  0  0
 22 28  1  0  0  0  0
 28 29  2  0  0  0  0
 29 30  1  0  0  0  0
 30 31  2  0  0  0  0
 31 23  1  0  0  0  0
 29 32  1  0  0  0  0
 32 33  1  0  0  0  0
M  END
>  <Mol_ID> (756)
4942

>  <Formula> (756)
C24H21BrFN5O2

>  <MolWeight> (756)
510.3582432

>  <Cat> (756)
S8757

>  <Name> (756)
Ripretinib (DCC-2618)

>  <Synonyms> (756)
N/A

>  <Target> (756)
c-Kit

>  <Form> (756)
Free Base

>  <CAS> (756)
1442472-39-0

>  <URL> (756)
http://www.selleckchem.com/products/ripretinib-dcc-2618.html

$$$$

csChFnd80/05071909292D

 29 33  0  0  0  0  0  0  0  0999 V2000
    5.2594    7.6203    0.0000 C   0  0  0  0  0  0  0  0  0  0  0  0
    5.2594    6.2203    0.0000 C   0  0  0  0  0  0  0  0  0  0  0  0
    6.4718    5.5203    0.0000 C   0  0  0  0  0  0  0  0  0  0  0  0
    7.6842    6.2203    0.0000 C   0  0  0  0  0  0  0  0  0  0  0  0
    7.6842    7.6203    0.0000 C   0  0  0  0  0  0  0  0  0  0  0  0
    6.4718    8.3203    0.0000 C   0  0  0  0  0  0  0  0  0  0  0  0
    8.8967    5.5203    0.0000 N   0  0  0  0  0  0  0  0  0  0  0  0
   10.1091    6.2203    0.0000 C   0  0  0  0  0  0  0  0  0  0  0  0
   10.1091    7.6203    0.0000 C   0  0  0  0  0  0  0  0  0  0  0  0
    8.8967    8.3203    0.0000 C   0  0  0  0  0  0  0  0  0  0  0  0
    4.0469    5.5203    0.0000 C   0  0  0  0  0  0  0  0  0  0  0  0
    8.8967    9.7203    0.0000 O   0  0  0  0  0  0  0  0  0  0  0  0
   10.1091   10.4203    0.0000 C   0  0  0  0  0  0  0  0  0  0  0  0
   11.3216    9.7203    0.0000 C   0  0  0  0  0  0  0  0  0  0  0  0
   12.5340   10.4203    0.0000 C   0  0  0  0  0  0  0  0  0  0  0  0
   12.5340   11.8203    0.0000 C   0  0  0  0  0  0  0  0  0  0  0  0
   11.3216   12.5203    0.0000 C   0  0  0  0  0  0  0  0  0  0  0  0
   10.1091   11.8203    0.0000 C   0  0  0  0  0  0  0  0  0  0  0  0
    2.7680    6.0897    0.0000 C   0  0  0  0  0  0  0  0  0  0  0  0
    1.8312    5.0493    0.0000 N   0  0  0  0  0  0  0  0  0  0  0  0
    2.5312    3.8369    0.0000 N   0  0  0  0  0  0  0  0  0  0  0  0
    3.9006    4.1280    0.0000 C   0  0  0  0  0  0  0  0  0  0  0  0
    1.9618    2.5579    0.0000 C   0  0  0  0  0  0  0  0  0  0  0  0
    0.5694    2.4116    0.0000 C   0  0  0  0  0  0  0  0  0  0  0  0
    0.0000    1.1326    0.0000 C   0  0  0  0  0  0  0  0  0  0  0  0
    0.8229    0.0000    0.0000 N   0  0  0  0  0  0  0  0  0  0  0  0
    2.2152    0.1463    0.0000 C   0  0  0  0  0  0  0  0  0  0  0  0
    2.7847    1.4253    0.0000 C   0  0  0  0  0  0  0  0  0  0  0  0
   13.7464   12.5203    0.0000 C   0  0  0  0  0  0  0  0  0  0  0  0
  1  2  2  0  0  0  0
  2  3  1  0  0  0  0
  3  4  2  0  0  0  0
  4  5  1  0  0  0  0
  5  6  2  0  0  0  0
  6  1  1  0  0  0  0
  4  7  1  0  0  0  0
  7  8  2  0  0  0  0
  8  9  1  0  0  0  0
  9 10  2  0  0  0  0
 10  5  1  0  0  0  0
  2 11  1  0  0  0  0
 10 12  1  0  0  0  0
 12 13  1  0  0  0  0
 13 14  2  0  0  0  0
 14 15  1  0  0  0  0
 15 16  2  0  0  0  0
 16 17  1  0  0  0  0
 17 18  2  0  0  0  0
 18 13  1  0  0  0  0
 11 19  1  0  0  0  0
 19 20  2  0  0  0  0
 20 21  1  0  0  0  0
 21 22  1  0  0  0  0
 22 11  2  0  0  0  0
 21 23  1  0  0  0  0
 23 24  1  0  0  0  0
 24 25  1  0  0  0  0
 25 26  1  0  0  0  0
 26 27  1  0  0  0  0
 27 28  1  0  0  0  0
 28 23  1  0  0  0  0
 16 29  1  0  0  0  0
M  END
>  <Mol_ID> (757)
4951

>  <Formula> (757)
C24H24N4O

>  <MolWeight> (757)
384.47356

>  <Cat> (757)
S8775

>  <Name> (757)
HS-1371

>  <Synonyms> (757)
N/A

>  <Target> (757)
Serine/threonin kina

>  <Form> (757)
Free Base

>  <CAS> (757)
2158197-70-5

>  <URL> (757)
http://www.selleckchem.com/products/hs-1371.html

$$$$

csChFnd80/05071909292D

 32 35  0  0  0  0  0  0  0  0999 V2000
    3.6373    4.2000    0.0000 N   0  0  0  0  0  0  0  0  0  0  0  0
    3.6373    2.8000    0.0000 C   0  0  0  0  0  0  0  0  0  0  0  0
    4.8497    2.1000    0.0000 C   0  0  0  0  0  0  0  0  0  0  0  0
    6.0622    2.8000    0.0000 C   0  0  0  0  0  0  0  0  0  0  0  0
    6.0622    4.2000    0.0000 C   0  0  0  0  0  0  0  0  0  0  0  0
    4.8497    4.9000    0.0000 C   0  0  0  0  0  0  0  0  0  0  0  0
    2.4249    4.9000    0.0000 C   0  0  0  0  0  0  0  0  0  0  0  0
    1.2124    4.2000    0.0000 C   0  0  0  0  0  0  0  0  0  0  0  0
    2.4249    6.3000    0.0000 O   0  0  0  0  0  0  0  0  0  0  0  0
    0.0000    4.9000    0.0000 C   0  0  0  0  0  0  0  0  0  0  0  0
    7.2746    2.1000    0.0000 C   0  0  0  0  0  0  0  0  0  0  0  0
    8.4870    2.8000    0.0000 N   0  0  0  0  0  0  0  0  0  0  0  0
    9.6995    2.1000    0.0000 C   0  0  0  0  0  0  0  0  0  0  0  0
    9.6995    0.7000    0.0000 N   0  0  0  0  0  0  0  0  0  0  0  0
   10.9119    0.0000    0.0000 C   0  0  0  0  0  0  0  0  0  0  0  0
   12.1244    0.7000    0.0000 N   0  0  0  0  0  0  0  0  0  0  0  0
   12.1244    2.1000    0.0000 C   0  0  0  0  0  0  0  0  0  0  0  0
   10.9119    2.8000    0.0000 C   0  0  0  0  0  0  0  0  0  0  0  0
   10.9119    4.2000    0.0000 C   0  0  0  0  0  0  0  0  0  0  0  0
   13.3368    2.8000    0.0000 N   0  0  0  0  0  0  0  0  0  0  0  0
   12.1244    4.9000    0.0000 C   0  0  0  0  0  0  0  0  0  0  0  0
   12.1244    6.3000    0.0000 C   0  0  0  0  0  0  0  0  0  0  0  0
   10.9119    7.0000    0.0000 C   0  0  0  0  0  0  0  0  0  0  0  0
    9.6995    6.3000    0.0000 C   0  0  0  0  0  0  0  0  0  0  0  0
    9.6995    4.9000    0.0000 C   0  0  0  0  0  0  0  0  0  0  0  0
   10.9119    8.4000    0.0000 O   0  0  0  0  0  0  0  0  0  0  0  0
   12.1244    9.1000    0.0000 C   0  0  0  0  0  0  0  0  0  0  0  0
   13.3368    8.4000    0.0000 C   0  0  0  0  0  0  0  0  0  0  0  0
   14.5492    9.1000    0.0000 C   0  0  0  0  0  0  0  0  0  0  0  0
   14.5492   10.5000    0.0000 C   0  0  0  0  0  0  0  0  0  0  0  0
   13.3368   11.2000    0.0000 C   0  0  0  0  0  0  0  0  0  0  0  0
   12.1244   10.5000    0.0000 C   0  0  0  0  0  0  0  0  0  0  0  0
  1  2  1  0  0  0  0
  2  3  1  0  0  0  0
  3  4  1  0  0  0  0
  4  5  1  0  0  0  0
  5  6  1  0  0  0  0
  6  1  1  0  0  0  0
  1  7  1  0  0  0  0
  7  8  1  0  0  0  0
  7  9  2  0  0  0  0
  8 10  2  0  0  0  0
  4 11  1  0  0  0  0
 11 12  1  0  0  0  0
 12 13  1  0  0  0  0
 13 14  2  0  0  0  0
 14 15  1  0  0  0  0
 15 16  2  0  0  0  0
 16 17  1  0  0  0  0
 17 18  2  0  0  0  0
 18 13  1  0  0  0  0
 18 19  1  0  0  0  0
 17 20  1  0  0  0  0
 19 21  2  0  0  0  0
 21 22  1  0  0  0  0
 22 23  2  0  0  0  0
 23 24  1  0  0  0  0
 24 25  2  0  0  0  0
 25 19  1  0  0  0  0
 23 26  1  0  0  0  0
 26 27  1  0  0  0  0
 27 28  2  0  0  0  0
 28 29  1  0  0  0  0
 29 30  2  0  0  0  0
 30 31  1  0  0  0  0
 31 32  2  0  0  0  0
 32 27  1  0  0  0  0
M  END
>  <Mol_ID> (758)
4953

>  <Formula> (758)
C25H27N5O2

>  <MolWeight> (758)
429.51418

>  <Cat> (758)
S8777

>  <Name> (758)
Evobrutinib

>  <Synonyms> (758)
M-2951, MSC-2364447C

>  <Target> (758)
BTK

>  <Form> (758)
Free Base

>  <CAS> (758)
1415823-73-2

>  <URL> (758)
http://www.selleckchem.com/products/evobrutinib.html

$$$$

csChFnd80/05071909292D

 33 35  0  0  0  0  0  0  0  0999 V2000
    4.8497    7.7000    0.0000 C   0  0  0  0  0  0  0  0  0  0  0  0
    4.8497    6.3000    0.0000 C   0  0  0  0  0  0  0  0  0  0  0  0
    6.0622    5.6000    0.0000 C   0  0  0  0  0  0  0  0  0  0  0  0
    7.2746    6.3000    0.0000 C   0  0  0  0  0  0  0  0  0  0  0  0
    7.2746    7.7000    0.0000 C   0  0  0  0  0  0  0  0  0  0  0  0
    6.0622    8.4000    0.0000 C   0  0  0  0  0  0  0  0  0  0  0  0
    3.6373    8.4000    0.0000 N   0  0  0  0  0  0  0  0  0  0  0  0
    2.4249    7.7000    0.0000 C   0  0  0  0  0  0  0  0  0  0  0  0
    1.2124    8.4000    0.0000 C   0  0  0  0  0  0  0  0  0  0  0  0
    0.0000    7.7000    0.0000 C   0  0  0  0  0  0  0  0  0  0  0  0
    2.4249    6.3000    0.0000 O   0  0  0  0  0  0  0  0  0  0  0  0
    3.6373    5.6000    0.0000 N   0  0  0  0  0  0  0  0  0  0  0  0
    3.6373    4.2000    0.0000 C   0  0  0  0  0  0  0  0  0  0  0  0
    8.4870    8.4000    0.0000 C   0  0  0  0  0  0  0  0  0  0  0  0
    2.4249    3.5000    0.0000 C   0  0  0  0  0  0  0  0  0  0  0  0
    2.4249    2.1000    0.0000 C   0  0  0  0  0  0  0  0  0  0  0  0
    3.6373    1.4000    0.0000 N   0  0  0  0  0  0  0  0  0  0  0  0
    4.8497    2.1000    0.0000 C   0  0  0  0  0  0  0  0  0  0  0  0
    4.8497    3.5000    0.0000 N   0  0  0  0  0  0  0  0  0  0  0  0
    1.2124    4.2000    0.0000 C   0  0  0  0  0  0  0  0  0  0  0  0
    0.5124    2.9876    0.0000 F   0  0  0  0  0  0  0  0  0  0  0  0
    0.0000    4.9000    0.0000 F   0  0  0  0  0  0  0  0  0  0  0  0
    1.9124    5.4124    0.0000 F   0  0  0  0  0  0  0  0  0  0  0  0
    6.0622    1.4000    0.0000 N   0  0  0  0  0  0  0  0  0  0  0  0
    7.2746    2.1000    0.0000 C   0  0  0  0  0  0  0  0  0  0  0  0
    8.4870    1.4000    0.0000 C   0  0  0  0  0  0  0  0  0  0  0  0
    9.6995    2.1000    0.0000 C   0  0  0  0  0  0  0  0  0  0  0  0
    9.6995    3.5000    0.0000 N   0  0  0  0  0  0  0  0  0  0  0  0
    8.4870    4.2000    0.0000 C   0  0  0  0  0  0  0  0  0  0  0  0
    7.2746    3.5000    0.0000 C   0  0  0  0  0  0  0  0  0  0  0  0
    8.4870    5.6000    0.0000 O   0  0  0  0  0  0  0  0  0  0  0  0
    9.6995    6.3000    0.0000 C   0  0  0  0  0  0  0  0  0  0  0  0
    8.4870    0.0000    0.0000 C   0  0  0  0  0  0  0  0  0  0  0  0
  1  2  2  0  0  0  0
  2  3  1  0  0  0  0
  3  4  2  0  0  0  0
  4  5  1  0  0  0  0
  5  6  2  0  0  0  0
  6  1  1  0  0  0  0
  1  7  1  0  0  0  0
  7  8  1  0  0  0  0
  8  9  1  0  0  0  0
  9 10  2  0  0  0  0
  8 11  2  0  0  0  0
  2 12  1  0  0  0  0
 12 13  1  0  0  0  0
  5 14  1  0  0  0  0
 13 15  2  0  0  0  0
 15 16  1  0  0  0  0
 16 17  2  0  0  0  0
 17 18  1  0  0  0  0
 18 19  2  0  0  0  0
 19 13  1  0  0  0  0
 15 20  1  0  0  0  0
 18 24  1  0  0  0  0
 24 25  1  0  0  0  0
 25 26  2  0  0  0  0
 26 27  1  0  0  0  0
 27 28  2  0  0  0  0
 28 29  1  0  0  0  0
 29 30  2  0  0  0  0
 30 25  1  0  0  0  0
 29 31  1  0  0  0  0
 31 32  1  0  0  0  0
 26 33  1  0  0  0  0
 20 21  1  0  0  0  0
 20 22  1  0  0  0  0
 20 23  1  0  0  0  0
M  END
>  <Mol_ID> (759)
4956

>  <Formula> (759)
C22H21F3N6O2

>  <MolWeight> (759)
458.4363496

>  <Cat> (759)
S8801

>  <Name> (759)
CC-90003

>  <Synonyms> (759)
N/A

>  <Target> (759)
ERK

>  <Form> (759)
Free Base

>  <CAS> (759)
1621999-82-3

>  <URL> (759)
http://www.selleckchem.com/products/cc-90003.html

$$$$

csChFnd80/05071909292D

 44 48  0  0  0  0  0  0  0  0999 V2000
    6.0621    7.7000    0.0000 C   0  0  0  0  0  0  0  0  0  0  0  0
    6.0621    6.3000    0.0000 C   0  0  0  0  0  0  0  0  0  0  0  0
    4.8498    5.6000    0.0000 C   0  0  0  0  0  0  0  0  0  0  0  0
    3.6373    6.3000    0.0000 C   0  0  0  0  0  0  0  0  0  0  0  0
    2.4248    5.6000    0.0000 C   0  0  0  0  0  0  0  0  0  0  0  0
    1.2123    6.3000    0.0000 C   0  0  0  0  0  0  0  0  0  0  0  0
    1.2123    7.7000    0.0000 C   0  0  0  0  0  0  0  0  0  0  0  0
    2.4248    8.4000    0.0000 C   0  0  0  0  0  0  0  0  0  0  0  0
    3.6373    7.7000    0.0000 C   0  0  0  0  0  0  0  0  0  0  0  0
    4.8498    8.4000    0.0000 O   0  0  0  0  0  0  0  0  0  0  0  0
    4.8498    4.2000    0.0000 O   0  0  0  0  0  0  0  0  0  0  0  0
    7.2746    8.4000    0.0000 C   0  0  0  0  0  0  0  0  0  0  0  0
    7.2746    9.8000    0.0000 C   0  0  0  0  0  0  0  0  0  0  0  0
    8.4871   10.5000    0.0000 C   0  0  0  0  0  0  0  0  0  0  0  0
    9.6994    9.8000    0.0000 C   0  0  0  0  0  0  0  0  0  0  0  0
    9.6994    8.4000    0.0000 C   0  0  0  0  0  0  0  0  0  0  0  0
    8.4871    7.7000    0.0000 C   0  0  0  0  0  0  0  0  0  0  0  0
    8.4871   11.9000    0.0000 O   0  0  0  0  0  0  0  0  0  0  0  0
    9.6994   12.6000    0.0000 C   0  0  0  0  0  0  0  0  0  0  0  0
   10.9118   10.5000    0.0000 O   0  0  0  0  0  0  0  0  0  0  0  0
    0.0000    8.4000    0.0000 O   0  0  0  0  0  0  0  0  0  0  0  0
    2.4248    4.2000    0.0000 O   0  0  0  0  0  0  0  0  0  0  0  0
    7.2746    5.6000    0.0000 O   0  0  0  0  0  0  0  0  0  0  0  0
    6.0621    3.5000    0.0000 O   0  0  0  0  0  0  0  0  0  0  0  0
    7.2746    4.2000    0.0000 C   0  0  3  0  0  0  0  0  0  0  0  0
    8.4871    3.5000    0.0000 C   0  0  1  0  0  0  0  0  0  0  0  0
    8.4871    2.1000    0.0000 C   0  0  2  0  0  0  0  0  0  0  0  0
    7.2746    1.4000    0.0000 C   0  0  1  0  0  0  0  0  0  0  0  0
    6.0621    2.1000    0.0000 C   0  0  1  0  0  0  0  0  0  0  0  0
    9.6994    4.2000    0.0000 O   0  0  0  0  0  0  0  0  0  0  0  0
   10.9118    2.1000    0.0000 O   0  0  0  0  0  0  0  0  0  0  0  0
   10.9118    3.5000    0.0000 C   0  0  2  0  0  0  0  0  0  0  0  0
   12.1243    4.2000    0.0000 C   0  0  1  0  0  0  0  0  0  0  0  0
   13.3368    3.5000    0.0000 C   0  0  1  0  0  0  0  0  0  0  0  0
   13.3368    2.1000    0.0000 C   0  0  2  0  0  0  0  0  0  0  0  0
   12.1243    1.4000    0.0000 C   0  0  2  0  0  0  0  0  0  0  0  0
   12.1243    0.0000    0.0000 C   0  0  0  0  0  0  0  0  0  0  0  0
   14.5491    1.4000    0.0000 O   0  0  0  0  0  0  0  0  0  0  0  0
   14.5491    4.2000    0.0000 O   0  0  0  0  0  0  0  0  0  0  0  0
   12.1243    5.6000    0.0000 O   0  0  0  0  0  0  0  0  0  0  0  0
    4.8498    1.4000    0.0000 C   0  0  0  0  0  0  0  0  0  0  0  0
    4.8498    0.0000    0.0000 O   0  0  0  0  0  0  0  0  0  0  0  0
    7.2746    0.0000    0.0000 O   0  0  0  0  0  0  0  0  0  0  0  0
    9.6994    1.4000    0.0000 O   0  0  0  0  0  0  0  0  0  0  0  0
  1  2  2  0  0  0  0
  2  3  1  0  0  0  0
  3  4  1  0  0  0  0
  4  5  1  0  0  0  0
  5  6  2  0  0  0  0
  6  7  1  0  0  0  0
  7  8  2  0  0  0  0
  8  9  1  0  0  0  0
  4  9  2  0  0  0  0
  9 10  1  0  0  0  0
  1 10  1  0  0  0  0
  3 11  2  0  0  0  0
 12 13  1  0  0  0  0
 13 14  2  0  0  0  0
 14 15  1  0  0  0  0
 15 16  2  0  0  0  0
 16 17  1  0  0  0  0
 12 17  2  0  0  0  0
 18 19  1  0  0  0  0
 14 18  1  0  0  0  0
 15 20  1  0  0  0  0
  1 12  1  0  0  0  0
  7 21  1  0  0  0  0
  5 22  1  0  0  0  0
 24 25  1  0  0  0  0
 25 26  1  0  0  0  0
 26 27  1  0  0  0  0
 27 28  1  0  0  0  0
 28 29  1  0  0  0  0
 24 29  1  0  0  0  0
 31 32  1  0  0  0  0
 32 33  1  0  0  0  0
 33 34  1  0  0  0  0
 34 35  1  0  0  0  0
 35 36  1  0  0  0  0
 31 36  1  0  0  0  0
 36 37  1  6  0  0  0
 35 38  1  1  0  0  0
 34 39  1  6  0  0  0
 33 40  1  6  0  0  0
 32 30  1  1  0  0  0
 26 30  1  6  0  0  0
 41 42  1  0  0  0  0
 29 41  1  1  0  0  0
 28 43  1  6  0  0  0
 27 44  1  1  0  0  0
 23 25  1  0  0  0  0
  2 23  1  0  0  0  0
M  END
>  <Mol_ID> (760)
4971

>  <Formula> (760)
C28H32O16

>  <MolWeight> (760)
624.54408

>  <Cat> (760)
S9455

>  <Name> (760)
Isorhamnetin 3-O-neohesperoside

>  <Synonyms> (760)
N/A

>  <Target> (760)
Others

>  <Form> (760)
Free Base

>  <CAS> (760)
55033-90-4

>  <URL> (760)
http://www.selleckchem.com/products/isorhamnetin-3-o-neohesperoside.html

$$$$

csChFnd80/05071909292D

 12 13  0  0  0  0  0  0  0  0999 V2000
    2.4249    2.1000    0.0000 C   0  0  0  0  0  0  0  0  0  0  0  0
    2.4249    0.7000    0.0000 C   0  0  0  0  0  0  0  0  0  0  0  0
    1.2124    2.8000    0.0000 C   0  0  0  0  0  0  0  0  0  0  0  0
    3.7564    2.5326    0.0000 N   0  0  0  0  0  0  0  0  0  0  0  0
    3.7564    0.2674    0.0000 N   0  0  0  0  0  0  0  0  0  0  0  0
    1.2124    0.0000    0.0000 N   0  0  0  0  0  0  0  0  0  0  0  0
    0.0000    2.1000    0.0000 N   0  0  0  0  0  0  0  0  0  0  0  0
    1.2124    4.2000    0.0000 N   0  0  0  0  0  0  0  0  0  0  0  0
    4.5792    1.4000    0.0000 C   0  0  0  0  0  0  0  0  0  0  0  0
    0.0000    0.7000    0.0000 C   0  0  0  0  0  0  0  0  0  0  0  0
    0.0000    4.9000    0.0000 C   0  0  0  0  0  0  0  0  0  0  0  0
    2.4249    4.9000    0.0000 C   0  0  0  0  0  0  0  0  0  0  0  0
  1  2  2  0  0  0  0
  1  3  1  0  0  0  0
  1  4  1  0  0  0  0
  2  5  1  0  0  0  0
  2  6  1  0  0  0  0
  3  7  2  0  0  0  0
  3  8  1  0  0  0  0
  4  9  1  0  0  0  0
  5  9  2  0  0  0  0
  6 10  2  0  0  0  0
  7 10  1  0  0  0  0
  8 11  1  0  0  0  0
  8 12  1  0  0  0  0
M  END
>  <Mol_ID> (761)
5141

>  <Formula> (761)
C7H9N5

>  <MolWeight> (761)
163.17986

>  <Cat> (761)
S6088

>  <Name> (761)
6-(Dimethylamino)purine

>  <Synonyms> (761)
N,N-Dimethyladenine

>  <Target> (761)
Serine/threonin kina

>  <Form> (761)
free base

>  <CAS> (761)
938-55-6

>  <URL> (761)
http://www.selleck.cn/products/6-dimethylamino-purine.html

$$$$

csChFnd80/05071909292D

 38 43  0  0  0  0  0  0  0  0999 V2000
    4.6406    7.9258    0.0000 C   0  0  0  0  0  0  0  0  0  0  0  0
    4.6406    6.5258    0.0000 C   0  0  0  0  0  0  0  0  0  0  0  0
    5.8531    5.8258    0.0000 C   0  0  0  0  0  0  0  0  0  0  0  0
    7.0655    6.5258    0.0000 C   0  0  0  0  0  0  0  0  0  0  0  0
    7.0655    7.9258    0.0000 C   0  0  0  0  0  0  0  0  0  0  0  0
    5.8531    8.6258    0.0000 C   0  0  0  0  0  0  0  0  0  0  0  0
    8.3970    6.0932    0.0000 N   0  0  0  0  0  0  0  0  0  0  0  0
    9.2199    7.2258    0.0000 C   0  0  0  0  0  0  0  0  0  0  0  0
    8.3970    8.3584    0.0000 S   0  0  0  0  0  0  0  0  0  0  0  0
    3.4282    8.6258    0.0000 S   0  0  0  0  0  0  0  0  0  0  0  0
    2.2157    7.9258    0.0000 C   0  0  0  0  0  0  0  0  0  0  0  0
    0.9368    8.4953    0.0000 N   0  0  0  0  0  0  0  0  0  0  0  0
    0.0000    7.4549    0.0000 N   0  0  0  0  0  0  0  0  0  0  0  0
    0.7000    6.2424    0.0000 C   0  0  0  0  0  0  0  0  0  0  0  0
    2.0694    6.5335    0.0000 N   0  0  0  0  0  0  0  0  0  0  0  0
    0.2674    4.9109    0.0000 C   0  0  0  0  0  0  0  0  0  0  0  0
    1.2042    3.8705    0.0000 C   0  0  0  0  0  0  0  0  0  0  0  0
    2.5736    4.1616    0.0000 C   0  0  0  0  0  0  0  0  0  0  0  0
    3.0062    5.4931    0.0000 N   0  0  0  0  0  0  0  0  0  0  0  0
    3.5103    3.1212    0.0000 C   0  0  0  0  0  0  0  0  0  0  0  0
    3.0777    1.7897    0.0000 C   0  0  0  0  0  0  0  0  0  0  0  0
    4.0145    0.7493    0.0000 C   0  0  0  0  0  0  0  0  0  0  0  0
    5.3839    1.0404    0.0000 C   0  0  0  0  0  0  0  0  0  0  0  0
    5.8165    2.3719    0.0000 C   0  0  0  0  0  0  0  0  0  0  0  0
    4.8798    3.4123    0.0000 C   0  0  0  0  0  0  0  0  0  0  0  0
   10.6199    7.2258    0.0000 N   0  0  0  0  0  0  0  0  0  0  0  0
   11.3199    6.0134    0.0000 C   0  0  0  0  0  0  0  0  0  0  0  0
   10.6199    4.8010    0.0000 O   0  0  0  0  0  0  0  0  0  0  0  0
   12.7199    6.0134    0.0000 N   0  0  0  0  0  0  0  0  0  0  0  0
   13.4199    4.8010    0.0000 C   0  0  0  0  0  0  0  0  0  0  0  0
   14.8199    4.8010    0.0000 C   0  0  0  0  0  0  0  0  0  0  0  0
   15.5199    3.5885    0.0000 N   0  0  0  0  0  0  0  0  0  0  0  0
   14.8199    2.3761    0.0000 C   0  0  0  0  0  0  0  0  0  0  0  0
   15.5199    1.1636    0.0000 C   0  0  0  0  0  0  0  0  0  0  0  0
   16.9199    1.1636    0.0000 O   0  0  0  0  0  0  0  0  0  0  0  0
   17.6199    2.3761    0.0000 C   0  0  0  0  0  0  0  0  0  0  0  0
   16.9199    3.5885    0.0000 C   0  0  0  0  0  0  0  0  0  0  0  0
    6.3207    0.0000    0.0000 F   0  0  0  0  0  0  0  0  0  0  0  0
  1  2  2  0  0  0  0
  2  3  1  0  0  0  0
  3  4  2  0  0  0  0
  4  5  1  0  0  0  0
  5  6  2  0  0  0  0
  6  1  1  0  0  0  0
  4  7  1  0  0  0  0
  7  8  2  0  0  0  0
  8  9  1  0  0  0  0
  9  5  1  0  0  0  0
  1 10  1  0  0  0  0
 10 11  1  0  0  0  0
 11 12  2  0  0  0  0
 12 13  1  0  0  0  0
 13 14  2  0  0  0  0
 14 15  1  0  0  0  0
 15 11  1  0  0  0  0
 14 16  1  0  0  0  0
 16 17  2  0  0  0  0
 17 18  1  0  0  0  0
 18 19  2  0  0  0  0
 19 15  1  0  0  0  0
 18 20  1  0  0  0  0
 20 21  2  0  0  0  0
 21 22  1  0  0  0  0
 22 23  2  0  0  0  0
 23 24  1  0  0  0  0
 24 25  2  0  0  0  0
 25 20  1  0  0  0  0
  8 26  1  0  0  0  0
 26 27  1  0  0  0  0
 27 28  2  0  0  0  0
 27 29  1  0  0  0  0
 29 30  1  0  0  0  0
 30 31  1  0  0  0  0
 31 32  1  0  0  0  0
 32 33  1  0  0  0  0
 33 34  1  0  0  0  0
 34 35  1  0  0  0  0
 35 36  1  0  0  0  0
 36 37  1  0  0  0  0
 37 32  1  0  0  0  0
 23 38  1  0  0  0  0
M  END
>  <Mol_ID> (762)
5286

>  <Formula> (762)
C25H23FN8O2S2

>  <MolWeight> (762)
550.6309232

>  <Cat> (762)
S7564

>  <Name> (762)
SAR125844

>  <Synonyms> (762)
N/A

>  <Target> (762)
c-Met

>  <Form> (762)
free base

>  <CAS> (762)
1116743-46-4

>  <URL> (762)
http://www.selleck.cn/products/sar125844.html

$$$$

csChFnd80/05071909292D

 35 39  0  0  0  0  0  0  0  0999 V2000
    7.3688    3.5000    0.0000 C   0  0  0  0  0  0  0  0  0  0  0  0
    7.3688    2.1000    0.0000 C   0  0  0  0  0  0  0  0  0  0  0  0
    8.5812    1.4000    0.0000 C   0  0  0  0  0  0  0  0  0  0  0  0
    9.7937    2.1000    0.0000 C   0  0  0  0  0  0  0  0  0  0  0  0
    9.7937    3.5000    0.0000 C   0  0  0  0  0  0  0  0  0  0  0  0
    8.5812    4.2000    0.0000 C   0  0  0  0  0  0  0  0  0  0  0  0
   11.0061    1.4000    0.0000 N   0  0  0  0  0  0  0  0  0  0  0  0
   12.2185    2.1000    0.0000 C   0  0  0  0  0  0  0  0  0  0  0  0
   12.2185    3.5000    0.0000 N   0  0  0  0  0  0  0  0  0  0  0  0
   11.0061    4.2000    0.0000 C   0  0  0  0  0  0  0  0  0  0  0  0
    6.1564    4.2000    0.0000 N   0  0  0  0  0  0  0  0  0  0  0  0
    4.9439    3.5000    0.0000 C   0  0  0  0  0  0  0  0  0  0  0  0
    3.7315    4.2000    0.0000 N   0  0  0  0  0  0  0  0  0  0  0  0
    4.9439    2.1000    0.0000 O   0  0  0  0  0  0  0  0  0  0  0  0
    6.1564    1.4000    0.0000 O   0  0  0  0  0  0  0  0  0  0  0  0
    6.1564    0.0000    0.0000 C   0  0  0  0  0  0  0  0  0  0  0  0
   11.0061    5.6000    0.0000 N   0  0  0  0  0  0  0  0  0  0  0  0
   12.2185    6.3000    0.0000 C   0  0  0  0  0  0  0  0  0  0  0  0
   13.4310    5.6000    0.0000 C   0  0  0  0  0  0  0  0  0  0  0  0
   14.6434    6.3000    0.0000 C   0  0  0  0  0  0  0  0  0  0  0  0
   14.6434    7.7000    0.0000 C   0  0  0  0  0  0  0  0  0  0  0  0
   13.4310    8.4000    0.0000 C   0  0  0  0  0  0  0  0  0  0  0  0
   12.2185    7.7000    0.0000 C   0  0  0  0  0  0  0  0  0  0  0  0
   15.8558    5.6000    0.0000 C   0  0  0  0  0  0  0  0  0  0  0  0
    3.5852    5.5923    0.0000 C   0  0  0  0  0  0  0  0  0  0  0  0
    2.2157    5.8834    0.0000 C   0  0  1  0  0  0  0  0  0  0  0  0
    1.5157    4.6710    0.0000 C   0  0  1  0  0  0  0  0  0  0  0  0
    2.4525    3.6306    0.0000 C   0  0  0  0  0  0  0  0  0  0  0  0
    1.2790    6.9238    0.0000 N   0  0  0  0  0  0  0  0  0  0  0  0
    0.0000    6.3544    0.0000 C   0  0  0  0  0  0  0  0  0  0  0  0
    0.1463    4.9620    0.0000 C   0  0  0  0  0  0  0  0  0  0  0  0
    1.5700    8.2932    0.0000 C   0  0  0  0  0  0  0  0  0  0  0  0
    2.9157    7.0958    0.0000 H   0  0  0  0  0  0  0  0  0  0  0  0
    0.8157    3.4585    0.0000 H   0  0  0  0  0  0  0  0  0  0  0  0
   17.0668    4.9000    0.0000 C   0  0  0  0  0  0  0  0  0  0  0  0
  1  2  2  0  0  0  0
  2  3  1  0  0  0  0
  3  4  2  0  0  0  0
  4  5  1  0  0  0  0
  5  6  2  0  0  0  0
  6  1  1  0  0  0  0
  4  7  1  0  0  0  0
  7  8  2  0  0  0  0
  8  9  1  0  0  0  0
  9 10  2  0  0  0  0
 10  5  1  0  0  0  0
  1 11  1  0  0  0  0
 11 12  1  0  0  0  0
 12 13  1  0  0  0  0
 12 14  2  0  0  0  0
  2 15  1  0  0  0  0
 15 16  1  0  0  0  0
 10 17  1  0  0  0  0
 17 18  1  0  0  0  0
 18 19  2  0  0  0  0
 19 20  1  0  0  0  0
 20 21  2  0  0  0  0
 21 22  1  0  0  0  0
 22 23  2  0  0  0  0
 23 18  1  0  0  0  0
 20 24  1  0  0  0  0
 13 25  1  0  0  0  0
 25 26  1  0  0  0  0
 26 27  1  0  0  0  0
 27 28  1  0  0  0  0
 28 13  1  0  0  0  0
 26 29  1  0  0  0  0
 29 30  1  0  0  0  0
 30 31  1  0  0  0  0
 31 27  1  0  0  0  0
 29 32  1  0  0  0  0
 26 33  1  6  0  0  0
 27 34  1  6  0  0  0
 24 35  3  0  0  0  0
M  END
>  <Mol_ID> (763)
5288

>  <Formula> (763)
C25H26N6O2

>  <MolWeight> (763)
442.51294

>  <Cat> (763)
S8584

>  <Name> (763)
Theliatinib (HMPL-309)

>  <Synonyms> (763)
N/A

>  <Target> (763)
EGFR

>  <Form> (763)
free base

>  <CAS> (763)
1353644-70-8

>  <URL> (763)
http://www.selleck.cn/products/theliatinib-hmpl-309.html

$$$$

csChFnd80/05071909292D

 34 37  0  0  0  0  0  0  0  0999 V2000
    0.0000    4.2000    0.0000 C   0  0  0  0  0  0  0  0  0  0  0  0
    0.0000    2.8000    0.0000 C   0  0  0  0  0  0  0  0  0  0  0  0
    1.2124    2.1000    0.0000 C   0  0  0  0  0  0  0  0  0  0  0  0
    2.4249    2.8000    0.0000 C   0  0  0  0  0  0  0  0  0  0  0  0
    2.4249    4.2000    0.0000 C   0  0  0  0  0  0  0  0  0  0  0  0
    1.2124    4.9000    0.0000 C   0  0  0  0  0  0  0  0  0  0  0  0
    1.2124    6.3000    0.0000 C   0  0  0  0  0  0  0  0  0  0  0  0
    3.6373    2.1000    0.0000 C   0  0  0  0  0  0  0  0  0  0  0  0
    4.8497    2.8000    0.0000 N   0  0  0  0  0  0  0  0  0  0  0  0
    3.6373    0.7000    0.0000 O   0  0  0  0  0  0  0  0  0  0  0  0
    6.0622    2.1000    0.0000 C   0  0  0  0  0  0  0  0  0  0  0  0
    6.0622    0.7000    0.0000 C   0  0  0  0  0  0  0  0  0  0  0  0
    7.2746    0.0000    0.0000 C   0  0  0  0  0  0  0  0  0  0  0  0
    8.4870    0.7000    0.0000 C   0  0  0  0  0  0  0  0  0  0  0  0
    8.4870    2.1000    0.0000 C   0  0  0  0  0  0  0  0  0  0  0  0
    7.2746    2.8000    0.0000 C   0  0  0  0  0  0  0  0  0  0  0  0
    9.6995    2.8000    0.0000 N   0  0  0  0  0  0  0  0  0  0  0  0
    9.6995    0.0000    0.0000 C   0  0  0  0  0  0  0  0  0  0  0  0
    9.6995    4.2000    0.0000 C   0  0  0  0  0  0  0  0  0  0  0  0
   10.9119    4.9000    0.0000 C   0  0  0  0  0  0  0  0  0  0  0  0
   10.9119    6.3000    0.0000 C   0  0  0  0  0  0  0  0  0  0  0  0
    9.6995    7.0000    0.0000 N   0  0  0  0  0  0  0  0  0  0  0  0
    8.4870    6.3000    0.0000 C   0  0  0  0  0  0  0  0  0  0  0  0
    8.4870    4.9000    0.0000 N   0  0  0  0  0  0  0  0  0  0  0  0
   12.1244    4.2000    0.0000 C   0  0  0  0  0  0  0  0  0  0  0  0
   13.3368    4.9000    0.0000 C   0  0  0  0  0  0  0  0  0  0  0  0
   13.3368    6.3000    0.0000 C   0  0  0  0  0  0  0  0  0  0  0  0
   12.1244    7.0000    0.0000 C   0  0  0  0  0  0  0  0  0  0  0  0
   14.5492    7.0000    0.0000 O   0  0  0  0  0  0  0  0  0  0  0  0
   15.7617    6.3000    0.0000 C   0  0  0  0  0  0  0  0  0  0  0  0
    0.0000    7.0000    0.0000 C   0  0  0  0  0  0  0  0  0  0  0  0
    2.4249    7.0000    0.0000 C   0  0  0  0  0  0  0  0  0  0  0  0
    1.2124    7.7000    0.0000 C   0  0  0  0  0  0  0  0  0  0  0  0
    1.2124    9.1000    0.0000 N   0  0  0  0  0  0  0  0  0  0  0  0
  1  2  2  0  0  0  0
  2  3  1  0  0  0  0
  3  4  2  0  0  0  0
  4  5  1  0  0  0  0
  5  6  2  0  0  0  0
  6  1  1  0  0  0  0
  6  7  1  0  0  0  0
  4  8  1  0  0  0  0
  8  9  1  0  0  0  0
  8 10  2  0  0  0  0
  9 11  1  0  0  0  0
 11 12  2  0  0  0  0
 12 13  1  0  0  0  0
 13 14  2  0  0  0  0
 14 15  1  0  0  0  0
 15 16  2  0  0  0  0
 16 11  1  0  0  0  0
 15 17  1  0  0  0  0
 14 18  1  0  0  0  0
 17 19  1  0  0  0  0
 19 20  1  0  0  0  0
 20 21  2  0  0  0  0
 21 22  1  0  0  0  0
 22 23  2  0  0  0  0
 23 24  1  0  0  0  0
 24 19  2  0  0  0  0
 20 25  1  0  0  0  0
 25 26  2  0  0  0  0
 26 27  1  0  0  0  0
 27 28  2  0  0  0  0
 28 21  1  0  0  0  0
 27 29  1  0  0  0  0
 29 30  1  0  0  0  0
  7 31  1  0  0  0  0
  7 32  1  0  0  0  0
  7 33  1  0  0  0  0
 33 34  3  0  0  0  0
M  END
>  <Mol_ID> (764)
5289

>  <Formula> (764)
C27H25N5O2

>  <MolWeight> (764)
451.5197

>  <Cat> (764)
S8755

>  <Name> (764)
AZ304

>  <Synonyms> (764)
N/A

>  <Target> (764)
Raf

>  <Form> (764)
free base

>  <CAS> (764)
942507-42-8

>  <URL> (764)
http://www.selleck.cn/products/az304.html

$$$$

csChFnd80/05071909292D

 22 24  0  0  0  0  0  0  0  0999 V2000
    0.0000    2.1000    0.0000 N   0  0  0  0  0  0  0  0  0  0  0  0
    0.0000    0.7000    0.0000 C   0  0  0  0  0  0  0  0  0  0  0  0
    1.2124    0.0000    0.0000 N   0  0  0  0  0  0  0  0  0  0  0  0
    2.4249    0.7000    0.0000 C   0  0  0  0  0  0  0  0  0  0  0  0
    2.4249    2.1000    0.0000 C   0  0  0  0  0  0  0  0  0  0  0  0
    1.2124    2.8000    0.0000 C   0  0  0  0  0  0  0  0  0  0  0  0
    3.7564    0.2674    0.0000 N   0  0  0  0  0  0  0  0  0  0  0  0
    4.5792    1.4000    0.0000 C   0  0  0  0  0  0  0  0  0  0  0  0
    3.7564    2.5326    0.0000 C   0  0  0  0  0  0  0  0  0  0  0  0
    1.2124    4.2000    0.0000 N   0  0  0  0  0  0  0  0  0  0  0  0
    0.0000    4.9000    0.0000 C   0  0  0  0  0  0  0  0  0  0  0  0
    2.4249    4.9000    0.0000 C   0  0  1  0  0  0  0  0  0  0  0  0
    3.7772    4.5377    0.0000 C   0  0  0  0  0  0  0  0  0  0  0  0
    4.1395    5.8899    0.0000 C   0  0  2  0  0  0  0  0  0  0  0  0
    2.7872    6.2523    0.0000 C   0  0  0  0  0  0  0  0  0  0  0  0
    5.3520    6.5899    0.0000 N   0  0  0  0  0  0  0  0  0  0  0  0
    6.5644    5.8899    0.0000 S   0  0  0  0  0  0  0  0  0  0  0  0
    7.7768    5.1899    0.0000 C   0  0  0  0  0  0  0  0  0  0  0  0
    7.7768    3.7899    0.0000 C   0  0  0  0  0  0  0  0  0  0  0  0
    8.9893    3.0899    0.0000 C   0  0  0  0  0  0  0  0  0  0  0  0
    5.8644    4.6775    0.0000 O   0  0  0  0  0  0  0  0  0  0  0  0
    7.2644    7.1024    0.0000 O   0  0  0  0  0  0  0  0  0  0  0  0
  1  2  2  0  0  0  0
  2  3  1  0  0  0  0
  3  4  2  0  0  0  0
  4  5  1  0  0  0  0
  5  6  2  0  0  0  0
  6  1  1  0  0  0  0
  4  7  1  0  0  0  0
  7  8  1  0  0  0  0
  8  9  2  0  0  0  0
  9  5  1  0  0  0  0
  6 10  1  0  0  0  0
 10 11  1  0  0  0  0
 12 10  1  6  0  0  0
 12 13  1  0  0  0  0
 13 14  1  0  0  0  0
 14 15  1  0  0  0  0
 15 12  1  0  0  0  0
 14 16  1  6  0  0  0
 16 17  1  0  0  0  0
 17 18  1  0  0  0  0
 18 19  1  0  0  0  0
 19 20  1  0  0  0  0
 17 21  2  0  0  0  0
 17 22  2  0  0  0  0
M  END
>  <Mol_ID> (765)
5292

>  <Formula> (765)
C14H21N5O2S

>  <MolWeight> (765)
323.41384

>  <Cat> (765)
S8765

>  <Name> (765)
PF-04965842

>  <Synonyms> (765)
N/A

>  <Target> (765)
JAK

>  <Form> (765)
free base

>  <CAS> (765)
1622902-68-4

>  <URL> (765)
http://www.selleck.cn/products/pf-04965842.html

$$$$

csChFnd80/05071909292D

 35 38  0  0  0  0  0  0  0  0999 V2000
    6.0622    2.1000    0.0000 C   0  0  0  0  0  0  0  0  0  0  0  0
    6.0622    0.7000    0.0000 C   0  0  0  0  0  0  0  0  0  0  0  0
    7.2746    0.0000    0.0000 C   0  0  0  0  0  0  0  0  0  0  0  0
    8.4870    0.7000    0.0000 C   0  0  0  0  0  0  0  0  0  0  0  0
    8.4870    2.1000    0.0000 C   0  0  0  0  0  0  0  0  0  0  0  0
    7.2746    2.8000    0.0000 C   0  0  0  0  0  0  0  0  0  0  0  0
    9.6995    0.0000    0.0000 N   0  0  0  0  0  0  0  0  0  0  0  0
   10.9119    0.7000    0.0000 C   0  0  0  0  0  0  0  0  0  0  0  0
   10.9119    2.1000    0.0000 N   0  0  0  0  0  0  0  0  0  0  0  0
    9.6995    2.8000    0.0000 C   0  0  0  0  0  0  0  0  0  0  0  0
    4.8497    0.0000    0.0000 O   0  0  0  0  0  0  0  0  0  0  0  0
    3.6373    0.7000    0.0000 C   0  0  0  0  0  0  0  0  0  0  0  0
    2.4249    0.0000    0.0000 C   0  0  0  0  0  0  0  0  0  0  0  0
    1.2124    0.7000    0.0000 O   0  0  0  0  0  0  0  0  0  0  0  0
    0.0000    0.0000    0.0000 C   0  0  0  0  0  0  0  0  0  0  0  0
    7.2746    4.2000    0.0000 F   0  0  0  0  0  0  0  0  0  0  0  0
    9.6995    4.2000    0.0000 N   0  0  0  0  0  0  0  0  0  0  0  0
   10.9119    4.9000    0.0000 C   0  0  0  0  0  0  0  0  0  0  0  0
   12.1244    4.2000    0.0000 C   0  0  0  0  0  0  0  0  0  0  0  0
   13.3368    4.9000    0.0000 C   0  0  0  0  0  0  0  0  0  0  0  0
   13.3368    6.3000    0.0000 C   0  0  0  0  0  0  0  0  0  0  0  0
   12.1244    7.0000    0.0000 C   0  0  0  0  0  0  0  0  0  0  0  0
   10.9119    6.3000    0.0000 C   0  0  0  0  0  0  0  0  0  0  0  0
   14.5492    7.0000    0.0000 N   0  0  0  0  0  0  0  0  0  0  0  0
   15.7617    6.3000    0.0000 C   0  0  0  0  0  0  0  0  0  0  0  0
   16.9741    7.0000    0.0000 O   0  0  0  0  0  0  0  0  0  0  0  0
   15.7617    4.9000    0.0000 C   0  0  0  0  0  0  0  0  0  0  0  0
   16.9741    4.2000    0.0000 N   0  0  0  0  0  0  0  0  0  0  0  0
   17.1204    2.8077    0.0000 C   0  0  0  0  0  0  0  0  0  0  0  0
   18.4898    2.5166    0.0000 C   0  0  0  0  0  0  0  0  0  0  0  0
   19.1898    3.7290    0.0000 N   0  0  0  0  0  0  0  0  0  0  0  0
   18.2531    4.7694    0.0000 N   0  0  0  0  0  0  0  0  0  0  0  0
   19.0593    1.2376    0.0000 C   0  0  0  0  0  0  0  0  0  0  0  0
   18.2364    0.1050    0.0000 C   0  0  0  0  0  0  0  0  0  0  0  0
   20.4516    1.0913    0.0000 C   0  0  0  0  0  0  0  0  0  0  0  0
  1  2  2  0  0  0  0
  2  3  1  0  0  0  0
  3  4  2  0  0  0  0
  4  5  1  0  0  0  0
  5  6  2  0  0  0  0
  6  1  1  0  0  0  0
  4  7  1  0  0  0  0
  7  8  2  0  0  0  0
  8  9  1  0  0  0  0
  9 10  2  0  0  0  0
 10  5  1  0  0  0  0
  2 11  1  0  0  0  0
 11 12  1  0  0  0  0
 12 13  1  0  0  0  0
 13 14  1  0  0  0  0
 14 15  1  0  0  0  0
  6 16  1  0  0  0  0
 10 17  1  0  0  0  0
 17 18  1  0  0  0  0
 18 19  2  0  0  0  0
 19 20  1  0  0  0  0
 20 21  2  0  0  0  0
 21 22  1  0  0  0  0
 22 23  2  0  0  0  0
 23 18  1  0  0  0  0
 21 24  1  0  0  0  0
 24 25  1  0  0  0  0
 25 26  2  0  0  0  0
 25 27  1  0  0  0  0
 27 28  1  0  0  0  0
 28 29  1  0  0  0  0
 29 30  2  0  0  0  0
 30 31  1  0  0  0  0
 31 32  2  0  0  0  0
 32 28  1  0  0  0  0
 30 33  1  0  0  0  0
 33 34  1  0  0  0  0
 33 35  1  0  0  0  0
M  END
>  <Mol_ID> (766)
5294

>  <Formula> (766)
C24H26FN7O3

>  <MolWeight> (766)
479.5067432

>  <Cat> (766)
S8780

>  <Name> (766)
AZD3229

>  <Synonyms> (766)
N/A

>  <Target> (766)
c-Kit

>  <Form> (766)
free base

>  <CAS> (766)
2248003-60-1

>  <URL> (766)
http://www.selleck.cn/products/azd3229.html

$$$$

csChFnd80/05071909292D

 29 32  0  0  0  0  0  0  0  0999 V2000
    1.2124    9.9436    0.0000 C   0  0  0  0  0  0  0  0  0  0  0  0
    1.2124    8.5436    0.0000 C   0  0  0  0  0  0  0  0  0  0  0  0
    2.4249    7.8436    0.0000 C   0  0  0  0  0  0  0  0  0  0  0  0
    3.6373    8.5436    0.0000 C   0  0  0  0  0  0  0  0  0  0  0  0
    3.6373    9.9436    0.0000 C   0  0  0  0  0  0  0  0  0  0  0  0
    2.4249   10.6436    0.0000 C   0  0  0  0  0  0  0  0  0  0  0  0
    0.0000   10.6436    0.0000 F   0  0  0  0  0  0  0  0  0  0  0  0
    4.8497   10.6436    0.0000 F   0  0  0  0  0  0  0  0  0  0  0  0
    2.4249    6.4436    0.0000 C   0  0  2  0  0  0  0  0  0  0  0  0
    1.2922    5.6207    0.0000 C   0  0  0  0  0  0  0  0  0  0  0  0
    1.7249    4.2892    0.0000 C   0  0  0  0  0  0  0  0  0  0  0  0
    3.1249    4.2892    0.0000 N   0  0  0  0  0  0  0  0  0  0  0  0
    3.5575    5.6207    0.0000 N   0  0  0  0  0  0  0  0  0  0  0  0
    4.8890    6.0533    0.0000 C   0  0  0  0  0  0  0  0  0  0  0  0
    5.9294    5.1165    0.0000 C   0  0  0  0  0  0  0  0  0  0  0  0
    5.1801    7.4227    0.0000 O   0  0  0  0  0  0  0  0  0  0  0  0
    5.6383    3.7471    0.0000 C   0  0  0  0  0  0  0  0  0  0  0  0
    6.6787    2.8103    0.0000 C   0  0  0  0  0  0  0  0  0  0  0  0
    8.0102    3.2430    0.0000 N   0  0  0  0  0  0  0  0  0  0  0  0
    8.3013    4.6124    0.0000 C   0  0  0  0  0  0  0  0  0  0  0  0
    7.2609    5.5492    0.0000 C   0  0  0  0  0  0  0  0  0  0  0  0
    9.0506    2.3062    0.0000 C   0  0  0  0  0  0  0  0  0  0  0  0
    8.7595    0.9368    0.0000 N   0  0  0  0  0  0  0  0  0  0  0  0
    9.7999    0.0000    0.0000 C   0  0  0  0  0  0  0  0  0  0  0  0
   11.1314    0.4326    0.0000 N   0  0  0  0  0  0  0  0  0  0  0  0
   11.4225    1.8020    0.0000 C   0  0  0  0  0  0  0  0  0  0  0  0
   10.3821    2.7388    0.0000 C   0  0  0  0  0  0  0  0  0  0  0  0
   12.7539    2.2347    0.0000 C   0  0  0  0  0  0  0  0  0  0  0  0
   14.0854    2.6673    0.0000 N   0  0  0  0  0  0  0  0  0  0  0  0
  1  2  2  0  0  0  0
  2  3  1  0  0  0  0
  3  4  2  0  0  0  0
  4  5  1  0  0  0  0
  5  6  2  0  0  0  0
  6  1  1  0  0  0  0
  1  7  1  0  0  0  0
  5  8  1  0  0  0  0
  9  3  1  1  0  0  0
  9 10  1  0  0  0  0
 10 11  1  0  0  0  0
 11 12  2  0  0  0  0
 12 13  1  0  0  0  0
 13  9  1  0  0  0  0
 13 14  1  0  0  0  0
 14 15  1  0  0  0  0
 14 16  2  0  0  0  0
 15 17  1  0  0  0  0
 17 18  1  0  0  0  0
 18 19  1  0  0  0  0
 19 20  1  0  0  0  0
 20 21  1  0  0  0  0
 21 15  1  0  0  0  0
 19 22  1  0  0  0  0
 22 23  2  0  0  0  0
 23 24  1  0  0  0  0
 24 25  2  0  0  0  0
 25 26  1  0  0  0  0
 26 27  2  0  0  0  0
 27 22  1  0  0  0  0
 26 28  1  0  0  0  0
 28 29  3  0  0  0  0
M  END
>  <Mol_ID> (767)
5295

>  <Formula> (767)
C20H18F2N6O

>  <MolWeight> (767)
396.3933264

>  <Cat> (767)
S8787

>  <Name> (767)
GSK'547

>  <Synonyms> (767)
N/A

>  <Target> (767)
TNF-alpha

>  <Form> (767)
free base

>  <CAS> (767)
2226735-55-1

>  <URL> (767)
http://www.selleck.cn/products/gsk547.html

$$$$

csChFnd80/05071909292D

 24 26  0  0  0  0  0  0  0  0999 V2000
    2.4515    3.5000    0.0000 C   0  0  0  0  0  0  0  0  0  0  0  0
    2.4515    2.1000    0.0000 C   0  0  0  0  0  0  0  0  0  0  0  0
    3.6640    1.4000    0.0000 C   0  0  0  0  0  0  0  0  0  0  0  0
    4.8764    2.1000    0.0000 C   0  0  0  0  0  0  0  0  0  0  0  0
    4.8764    3.5000    0.0000 C   0  0  0  0  0  0  0  0  0  0  0  0
    3.6640    4.2000    0.0000 C   0  0  0  0  0  0  0  0  0  0  0  0
    6.0888    1.4000    0.0000 N   0  0  0  0  0  0  0  0  0  0  0  0
    7.3013    2.1000    0.0000 C   0  0  0  0  0  0  0  0  0  0  0  0
    7.3013    3.5000    0.0000 C   0  0  0  0  0  0  0  0  0  0  0  0
    6.0888    4.2000    0.0000 C   0  0  0  0  0  0  0  0  0  0  0  0
    1.2391    1.4000    0.0000 C   0  0  0  0  0  0  0  0  0  0  0  0
    8.5137    1.4000    0.0000 C   0  0  0  0  0  0  0  0  0  0  0  0
    9.7261    2.1000    0.0000 C   0  0  0  0  0  0  0  0  0  0  0  0
   10.9386    1.4000    0.0000 C   0  0  0  0  0  0  0  0  0  0  0  0
   12.1510    2.1000    0.0000 C   0  0  0  0  0  0  0  0  0  0  0  0
   10.9386    0.0000    0.0000 O   0  0  0  0  0  0  0  0  0  0  0  0
   13.3634    1.4000    0.0000 C   0  0  0  0  0  0  0  0  0  0  0  0
   14.5759    2.1000    0.0000 C   0  0  0  0  0  0  0  0  0  0  0  0
   14.5759    3.5000    0.0000 N   0  0  0  0  0  0  0  0  0  0  0  0
   13.3634    4.2000    0.0000 C   0  0  0  0  0  0  0  0  0  0  0  0
   12.1510    3.5000    0.0000 C   0  0  0  0  0  0  0  0  0  0  0  0
    0.0266    2.1000    0.0000 F   0  0  0  0  0  0  0  0  0  0  0  0
    1.2391    0.0000    0.0000 F   0  0  0  0  0  0  0  0  0  0  0  0
    0.0000    0.7483    0.0000 F   0  0  0  0  0  0  0  0  0  0  0  0
  1  2  2  0  0  0  0
  2  3  1  0  0  0  0
  3  4  2  0  0  0  0
  4  5  1  0  0  0  0
  5  6  2  0  0  0  0
  6  1  1  0  0  0  0
  4  7  1  0  0  0  0
  7  8  2  0  0  0  0
  8  9  1  0  0  0  0
  9 10  2  0  0  0  0
 10  5  1  0  0  0  0
  2 11  1  0  0  0  0
  8 12  1  0  0  0  0
 12 13  2  0  0  0  0
 13 14  1  0  0  0  0
 14 15  1  0  0  0  0
 14 16  2  0  0  0  0
 15 17  2  0  0  0  0
 17 18  1  0  0  0  0
 18 19  2  0  0  0  0
 19 20  1  0  0  0  0
 20 21  2  0  0  0  0
 21 15  1  0  0  0  0
 11 22  1  0  0  0  0
 11 23  1  0  0  0  0
 11 24  1  0  0  0  0
M  END
>  <Mol_ID> (768)
5296

>  <Formula> (768)
C18H11F3N2O

>  <MolWeight> (768)
328.2879496

>  <Cat> (768)
S8807

>  <Name> (768)
PFK158

>  <Synonyms> (768)
N/A

>  <Target> (768)
Autophagy

>  <Form> (768)
free base

>  <CAS> (768)
1462249-75-7

>  <URL> (768)
http://www.selleck.cn/products/pfk158.html

$$$$

csChFnd80/05071909292D

 37 41  0  0  0  0  0  0  0  0999 V2000
    0.0000   10.5000    0.0000 C   0  0  0  0  0  0  0  0  0  0  0  0
    0.0000    9.1000    0.0000 C   0  0  0  0  0  0  0  0  0  0  0  0
    1.2124    8.4000    0.0000 C   0  0  0  0  0  0  0  0  0  0  0  0
    2.4249    9.1000    0.0000 C   0  0  0  0  0  0  0  0  0  0  0  0
    2.4249   10.5000    0.0000 C   0  0  0  0  0  0  0  0  0  0  0  0
    1.2124   11.2000    0.0000 C   0  0  0  0  0  0  0  0  0  0  0  0
    1.2124    7.0000    0.0000 N   0  0  0  0  0  0  0  0  0  0  0  0
    1.2124   12.6000    0.0000 C   0  0  0  0  0  0  0  0  0  0  0  0
    3.6373    8.4000    0.0000 N   0  0  0  0  0  0  0  0  0  0  0  0
    0.0000    6.3000    0.0000 C   0  0  0  0  0  0  0  0  0  0  0  0
    0.0000    4.9000    0.0000 C   0  0  0  0  0  0  0  0  0  0  0  0
    1.2124    4.2000    0.0000 N   0  0  0  0  0  0  0  0  0  0  0  0
    2.4249    4.9000    0.0000 C   0  0  0  0  0  0  0  0  0  0  0  0
    2.4249    6.3000    0.0000 C   0  0  0  0  0  0  0  0  0  0  0  0
    1.2124    2.8000    0.0000 C   0  0  0  0  0  0  0  0  0  0  0  0
    2.4249    2.1000    0.0000 C   0  0  0  0  0  0  0  0  0  0  0  0
    2.4249    0.7000    0.0000 C   0  0  0  0  0  0  0  0  0  0  0  0
    3.6373    0.0000    0.0000 C   0  0  0  0  0  0  0  0  0  0  0  0
    4.8497    0.7000    0.0000 C   0  0  0  0  0  0  0  0  0  0  0  0
    4.8497    2.1000    0.0000 C   0  0  0  0  0  0  0  0  0  0  0  0
    3.6373    2.8000    0.0000 N   0  0  0  0  0  0  0  0  0  0  0  0
    4.8497    9.1000    0.0000 C   0  0  0  0  0  0  0  0  0  0  0  0
    6.0622    8.4000    0.0000 C   0  0  0  0  0  0  0  0  0  0  0  0
    4.8497   10.5000    0.0000 O   0  0  0  0  0  0  0  0  0  0  0  0
    6.2085    7.0077    0.0000 O   0  0  0  0  0  0  0  0  0  0  0  0
    7.5779    6.7166    0.0000 C   0  0  0  0  0  0  0  0  0  0  0  0
    8.2779    7.9290    0.0000 C   0  0  0  0  0  0  0  0  0  0  0  0
    7.3411    8.9694    0.0000 C   0  0  0  0  0  0  0  0  0  0  0  0
    8.1474    5.4376    0.0000 C   0  0  0  0  0  0  0  0  0  0  0  0
    7.3245    4.3050    0.0000 C   0  0  0  0  0  0  0  0  0  0  0  0
    7.8939    3.0260    0.0000 C   0  0  0  0  0  0  0  0  0  0  0  0
    9.2862    2.8797    0.0000 N   0  0  0  0  0  0  0  0  0  0  0  0
   10.1091    4.0123    0.0000 C   0  0  0  0  0  0  0  0  0  0  0  0
    9.5397    5.2913    0.0000 C   0  0  0  0  0  0  0  0  0  0  0  0
    0.0000   13.3000    0.0000 F   0  0  0  0  0  0  0  0  0  0  0  0
    2.4249   13.3000    0.0000 F   0  0  0  0  0  0  0  0  0  0  0  0
    1.2124   14.0000    0.0000 F   0  0  0  0  0  0  0  0  0  0  0  0
  1  2  2  0  0  0  0
  2  3  1  0  0  0  0
  3  4  2  0  0  0  0
  4  5  1  0  0  0  0
  5  6  2  0  0  0  0
  6  1  1  0  0  0  0
  3  7  1  0  0  0  0
  6  8  1  0  0  0  0
  4  9  1  0  0  0  0
  7 10  1  0  0  0  0
 10 11  1  0  0  0  0
 11 12  1  0  0  0  0
 12 13  1  0  0  0  0
 13 14  1  0  0  0  0
 14  7  1  0  0  0  0
 12 15  1  0  0  0  0
 15 16  1  0  0  0  0
 16 17  2  0  0  0  0
 17 18  1  0  0  0  0
 18 19  2  0  0  0  0
 19 20  1  0  0  0  0
 20 21  2  0  0  0  0
 21 16  1  0  0  0  0
  9 22  1  0  0  0  0
 22 23  1  0  0  0  0
 22 24  2  0  0  0  0
 23 25  1  0  0  0  0
 25 26  1  0  0  0  0
 26 27  2  0  0  0  0
 27 28  1  0  0  0  0
 28 23  2  0  0  0  0
 26 29  1  0  0  0  0
 29 30  2  0  0  0  0
 30 31  1  0  0  0  0
 31 32  2  0  0  0  0
 32 33  1  0  0  0  0
 33 34  2  0  0  0  0
 34 29  1  0  0  0  0
  8 35  1  0  0  0  0
  8 36  1  0  0  0  0
  8 37  1  0  0  0  0
M  END
>  <Mol_ID> (769)
5298

>  <Formula> (769)
C27H24F3N5O2

>  <MolWeight> (769)
507.5069696

>  <Cat> (769)
S8810

>  <Name> (769)
SPHINX31

>  <Synonyms> (769)
N/A

>  <Target> (769)
Serine/threonin kina

>  <Form> (769)
free base

>  <CAS> (769)
1818389-84-2

>  <URL> (769)
http://www.selleck.cn/products/sphinx31.html

$$$$
LRRK2-IN-1.cdx
csChFnd80/05071909292D

 42 47  0  0  0  0  0  0  0  0999 V2000
    4.8413   12.5854    0.0000 N   0  0  0  0  0  0  0  0  0  0  0  0
    4.8413   11.1854    0.0000 C   0  0  0  0  0  0  0  0  0  0  0  0
    6.0538   10.4854    0.0000 N   0  0  0  0  0  0  0  0  0  0  0  0
    7.2662   11.1854    0.0000 C   0  0  0  0  0  0  0  0  0  0  0  0
    7.2662   12.5854    0.0000 C   0  0  0  0  0  0  0  0  0  0  0  0
    6.0538   13.2854    0.0000 C   0  0  0  0  0  0  0  0  0  0  0  0
    8.3608   10.3125    0.0000 N   0  0  0  0  0  0  0  0  0  0  0  0
    9.7257   10.6241    0.0000 C   0  0  0  0  0  0  0  0  0  0  0  0
   10.3331   11.8854    0.0000 C   0  0  0  0  0  0  0  0  0  0  0  0
    9.7257   13.1468    0.0000 C   0  0  0  0  0  0  0  0  0  0  0  0
    8.3608   13.4583    0.0000 N   0  0  0  0  0  0  0  0  0  0  0  0
    8.0492   14.8232    0.0000 C   0  0  0  0  0  0  0  0  0  0  0  0
    8.0492    8.9476    0.0000 C   0  0  0  0  0  0  0  0  0  0  0  0
   10.5985   14.2413    0.0000 O   0  0  0  0  0  0  0  0  0  0  0  0
   10.5143    9.4673    0.0000 C   0  0  0  0  0  0  0  0  0  0  0  0
   11.9104    9.5720    0.0000 C   0  0  0  0  0  0  0  0  0  0  0  0
   12.5178   10.8333    0.0000 C   0  0  0  0  0  0  0  0  0  0  0  0
   11.7292   11.9900    0.0000 C   0  0  0  0  0  0  0  0  0  0  0  0
    3.6289   10.4854    0.0000 N   0  0  0  0  0  0  0  0  0  0  0  0
    3.6289    9.0903    0.0000 C   0  0  0  0  0  0  0  0  0  0  0  0
    2.4165    8.3903    0.0000 C   0  0  0  0  0  0  0  0  0  0  0  0
    2.4165    6.9903    0.0000 C   0  0  0  0  0  0  0  0  0  0  0  0
    3.6289    6.2903    0.0000 C   0  0  0  0  0  0  0  0  0  0  0  0
    4.8413    6.9903    0.0000 C   0  0  0  0  0  0  0  0  0  0  0  0
    4.8413    8.3903    0.0000 C   0  0  0  0  0  0  0  0  0  0  0  0
    1.2082    9.0879    0.0000 O   0  0  0  0  0  0  0  0  0  0  0  0
    0.0000    8.3903    0.0000 C   0  0  0  0  0  0  0  0  0  0  0  0
    3.6289    4.8951    0.0000 C   0  0  0  0  0  0  0  0  0  0  0  0
    4.8371    4.1976    0.0000 N   0  0  0  0  0  0  0  0  0  0  0  0
    2.4207    4.1976    0.0000 O   0  0  0  0  0  0  0  0  0  0  0  0
    4.8371    2.7976    0.0000 C   0  0  0  0  0  0  0  0  0  0  0  0
    6.0496    2.0976    0.0000 C   0  0  0  0  0  0  0  0  0  0  0  0
    7.2620    2.7976    0.0000 C   0  0  0  0  0  0  0  0  0  0  0  0
    7.2620    4.1976    0.0000 C   0  0  0  0  0  0  0  0  0  0  0  0
    6.0496    4.8976    0.0000 C   0  0  0  0  0  0  0  0  0  0  0  0
    8.4702    2.1000    0.0000 N   0  0  0  0  0  0  0  0  0  0  0  0
    8.4702    0.7000    0.0000 C   0  0  0  0  0  0  0  0  0  0  0  0
    9.6826    0.0000    0.0000 C   0  0  0  0  0  0  0  0  0  0  0  0
   10.8951    0.7000    0.0000 N   0  0  0  0  0  0  0  0  0  0  0  0
   10.8951    2.1000    0.0000 C   0  0  0  0  0  0  0  0  0  0  0  0
    9.6826    2.8000    0.0000 C   0  0  0  0  0  0  0  0  0  0  0  0
   12.1033    0.0024    0.0000 C   0  0  0  0  0  0  0  0  0  0  0  0
  1  2  2  0  0  0  0
  2  3  1  0  0  0  0
  3  4  2  0  0  0  0
  4  5  1  0  0  0  0
  5  6  2  0  0  0  0
  6  1  1  0  0  0  0
  4  7  1  0  0  0  0
  7  8  1  0  0  0  0
  8  9  2  0  0  0  0
  9 10  1  0  0  0  0
 10 11  1  0  0  0  0
 11  5  1  0  0  0  0
 11 12  1  0  0  0  0
  7 13  1  0  0  0  0
 10 14  2  0  0  0  0
  8 15  1  0  0  0  0
 15 16  2  0  0  0  0
 16 17  1  0  0  0  0
 17 18  2  0  0  0  0
 18  9  1  0  0  0  0
  2 19  1  0  0  0  0
 19 20  1  0  0  0  0
 20 21  2  0  0  0  0
 21 22  1  0  0  0  0
 22 23  2  0  0  0  0
 23 24  1  0  0  0  0
 24 25  2  0  0  0  0
 25 20  1  0  0  0  0
 21 26  1  0  0  0  0
 26 27  1  0  0  0  0
 23 28  1  0  0  0  0
 28 29  1  0  0  0  0
 28 30  2  0  0  0  0
 29 31  1  0  0  0  0
 31 32  1  0  0  0  0
 32 33  1  0  0  0  0
 33 34  1  0  0  0  0
 34 35  1  0  0  0  0
 35 29  1  0  0  0  0
 33 36  1  0  0  0  0
 36 37  1  0  0  0  0
 37 38  1  0  0  0  0
 38 39  1  0  0  0  0
 39 40  1  0  0  0  0
 40 41  1  0  0  0  0
 41 36  1  0  0  0  0
 39 42  1  0  0  0  0
M  END
>  <Mol_ID> (770)
2967

>  <Formula> (770)
C31H38N8O3

>  <MolWeight> (770)
570.68522

>  <Cat> (770)
S7584

>  <Name> (770)
LRRK2-IN-1

>  <Synonyms> (770)
N/A

>  <Target> (770)
LRRK2

>  <Form> (770)
Free Base

>  <CAS> (770)
1234480-84-2

>  <URL> (770)
http://www.selleckchem.com/products/lrrk2-in-1.html

$$$$
TGR-1202.cdx
csChFnd80/05071909292D

 42 47  0  0  0  0  0  0  0  0999 V2000
    1.2124   11.1712    0.0000 C   0  0  0  0  0  0  0  0  0  0  0  0
    1.2124    9.7712    0.0000 C   0  0  0  0  0  0  0  0  0  0  0  0
    2.4249    9.0712    0.0000 C   0  0  0  0  0  0  0  0  0  0  0  0
    3.6373    9.7712    0.0000 C   0  0  0  0  0  0  0  0  0  0  0  0
    3.6373   11.1712    0.0000 C   0  0  0  0  0  0  0  0  0  0  0  0
    2.4249   11.8712    0.0000 C   0  0  0  0  0  0  0  0  0  0  0  0
    4.8497    9.0712    0.0000 O   0  0  0  0  0  0  0  0  0  0  0  0
    6.0622    9.7712    0.0000 C   0  0  0  0  0  0  0  0  0  0  0  0
    6.0622   11.1712    0.0000 C   0  0  0  0  0  0  0  0  0  0  0  0
    4.8497   11.8712    0.0000 C   0  0  0  0  0  0  0  0  0  0  0  0
    4.8497   13.2712    0.0000 O   0  0  0  0  0  0  0  0  0  0  0  0
    0.0000   11.8712    0.0000 F   0  0  0  0  0  0  0  0  0  0  0  0
    7.2746   11.8712    0.0000 C   0  0  0  0  0  0  0  0  0  0  0  0
    7.2746    9.0712    0.0000 C   0  0  2  0  0  0  0  0  0  0  0  0
    8.4870    9.7712    0.0000 C   0  0  0  0  0  0  0  0  0  0  0  0
    7.2746    7.6712    0.0000 N   0  0  0  0  0  0  0  0  0  0  0  0
    8.4870   11.1712    0.0000 C   0  0  0  0  0  0  0  0  0  0  0  0
    9.6995   11.8712    0.0000 C   0  0  0  0  0  0  0  0  0  0  0  0
    9.6995   13.2712    0.0000 C   0  0  0  0  0  0  0  0  0  0  0  0
    8.4870   13.9712    0.0000 C   0  0  0  0  0  0  0  0  0  0  0  0
    7.2746   13.2712    0.0000 C   0  0  0  0  0  0  0  0  0  0  0  0
   10.9119   11.1712    0.0000 F   0  0  0  0  0  0  0  0  0  0  0  0
    6.1420    6.8483    0.0000 N   0  0  0  0  0  0  0  0  0  0  0  0
    6.5746    5.5168    0.0000 C   0  0  0  0  0  0  0  0  0  0  0  0
    7.9746    5.5168    0.0000 C   0  0  0  0  0  0  0  0  0  0  0  0
    8.4072    6.8483    0.0000 C   0  0  0  0  0  0  0  0  0  0  0  0
    8.9114    4.4764    0.0000 C   0  0  0  0  0  0  0  0  0  0  0  0
   10.2808    4.7675    0.0000 N   0  0  0  0  0  0  0  0  0  0  0  0
   10.7134    6.0989    0.0000 C   0  0  0  0  0  0  0  0  0  0  0  0
    9.7766    7.1393    0.0000 N   0  0  0  0  0  0  0  0  0  0  0  0
    5.7517    4.3842    0.0000 C   0  0  0  0  0  0  0  0  0  0  0  0
    4.3594    4.5305    0.0000 C   0  0  0  0  0  0  0  0  0  0  0  0
    3.5365    3.3979    0.0000 C   0  0  0  0  0  0  0  0  0  0  0  0
    4.1059    2.1189    0.0000 C   0  0  0  0  0  0  0  0  0  0  0  0
    5.4982    1.9726    0.0000 C   0  0  0  0  0  0  0  0  0  0  0  0
    6.3211    3.1052    0.0000 C   0  0  0  0  0  0  0  0  0  0  0  0
    2.1442    3.5442    0.0000 F   0  0  0  0  0  0  0  0  0  0  0  0
    3.2830    0.9863    0.0000 O   0  0  0  0  0  0  0  0  0  0  0  0
    1.8907    1.1326    0.0000 C   0  0  0  0  0  0  0  0  0  0  0  0
    1.3213    2.4116    0.0000 C   0  0  0  0  0  0  0  0  0  0  0  0
    1.0678    0.0000    0.0000 C   0  0  0  0  0  0  0  0  0  0  0  0
    8.4788    3.1449    0.0000 N   0  0  0  0  0  0  0  0  0  0  0  0
  1  2  2  0  0  0  0
  2  3  1  0  0  0  0
  3  4  2  0  0  0  0
  4  5  1  0  0  0  0
  5  6  2  0  0  0  0
  6  1  1  0  0  0  0
  4  7  1  0  0  0  0
  7  8  1  0  0  0  0
  8  9  2  0  0  0  0
  9 10  1  0  0  0  0
 10  5  1  0  0  0  0
 10 11  2  0  0  0  0
  1 12  1  0  0  0  0
  9 13  1  0  0  0  0
  8 14  1  0  0  0  0
 14 15  1  0  0  0  0
 14 16  1  6  0  0  0
 13 17  2  0  0  0  0
 17 18  1  0  0  0  0
 18 19  2  0  0  0  0
 19 20  1  0  0  0  0
 20 21  2  0  0  0  0
 21 13  1  0  0  0  0
 18 22  1  0  0  0  0
 16 23  1  0  0  0  0
 23 24  2  0  0  0  0
 24 25  1  0  0  0  0
 25 26  2  0  0  0  0
 26 16  1  0  0  0  0
 25 27  1  0  0  0  0
 27 28  2  0  0  0  0
 28 29  1  0  0  0  0
 29 30  2  0  0  0  0
 30 26  1  0  0  0  0
 24 31  1  0  0  0  0
 31 32  2  0  0  0  0
 32 33  1  0  0  0  0
 33 34  2  0  0  0  0
 34 35  1  0  0  0  0
 35 36  2  0  0  0  0
 36 31  1  0  0  0  0
 33 37  1  0  0  0  0
 34 38  1  0  0  0  0
 38 39  1  0  0  0  0
 39 40  1  0  0  0  0
 39 41  1  0  0  0  0
 27 42  1  0  0  0  0
M  END
>  <Mol_ID> (771)
3369

>  <Formula> (771)
C31H24F3N5O3

>  <MolWeight> (771)
571.5491696

>  <Cat> (771)
S8194

>  <Name> (771)
TGR-1202

>  <Synonyms> (771)
Rp-5264

>  <Target> (771)
PI3K

>  <Form> (771)
Free Base

>  <CAS> (771)
1532533-67-7

>  <URL> (771)
http://www.selleckchem.com/products/tgr-1202.html

$$$$
